geometry optimzed in LAMMPS
_audit_creation_date              2020-12-01 
_audit_creation_method            'lammps2cif' 
_symmetry_space_group_name_H-M    'P1' 
_symmetry_Int_Tables_number       1 
_symmetry_cell_setting            triclinic 
loop_ 
_symmetry_equiv_pos_as_xyz 
  x,y,z 
_cell_length_a                    53.49455321 
_cell_length_b                    53.6629198524252 
_cell_length_c                    45.58184471545827 
_cell_angle_alpha                 90.19147164906629 
_cell_angle_beta                  89.88413962161889 
_cell_angle_gamma                 130.86078578382288 
loop_ 
_atom_site_label 
_atom_site_type_symbol 
_atom_site_fract_x 
_atom_site_fract_y 
_atom_site_fract_z 
_atom_site_charge 
C1          C  0.35216957  0.15228065  0.89258294     0.86500
C2          C  0.37217764  0.18844534  0.90094955    -0.53700
C3          C  0.35828718  0.20132864  0.89207743     0.09500
C4          C  0.32528580  0.17657314  0.87548734     0.20400
C5          C  0.31757340  0.13427210  0.90520843    -0.54400
C6          C  0.30336047  0.14685607  0.89635093     0.09600
C7          C  0.34747863  0.15116964  0.85926953    -0.54000
C8          C  0.33318923  0.16353896  0.85017079     0.10100
H9          H  0.39499383  0.20233210  0.91344514     0.14700
H10         H  0.31377382  0.18678814  0.86819541     0.00400
H11         H  0.30545764  0.11338007  0.91992423     0.15000
H12         H  0.35395799  0.14079998  0.84386938     0.14800
C13         C  0.35144038  0.14966336  0.60588729     0.86500
C14         C  0.31715620  0.13221545  0.59272020    -0.53700
C15         C  0.30347673  0.14548570  0.60109725     0.09500
C16         C  0.32528617  0.17490028  0.62240028     0.20400
C17         C  0.37216746  0.18605155  0.59778401    -0.54400
C18         C  0.35848554  0.19931578  0.60620326     0.09600
C19         C  0.34605106  0.14828549  0.63913122    -0.54000
C20         C  0.33240028  0.16142399  0.64787885     0.10100
H21         H  0.30494179  0.11138511  0.57779388     0.14700
H22         H  0.31411764  0.18553606  0.62954464     0.00400
H23         H  0.39506600  0.19966437  0.58545291     0.15000
H24         H  0.35184062  0.13747664  0.65469135     0.14800
C25         C  0.12312049  0.37307613  0.10777560     0.86500
C26         C  0.15760942  0.39047408  0.09494389    -0.53700
C27         C  0.17143036  0.37756853  0.10404731     0.09500
C28         C  0.14955821  0.34847865  0.12541223     0.20400
C29         C  0.10264369  0.33652393  0.10005056    -0.54400
C30         C  0.11657055  0.32366918  0.10896700     0.09600
C31         C  0.12822614  0.37486981  0.14105530    -0.54000
C32         C  0.14206523  0.36215034  0.15032273     0.10100
H33         H  0.16996712  0.41116073  0.07994616     0.14700
H34         H  0.16097273  0.33835534  0.13321788     0.00400
H35         H  0.07977068  0.32244279  0.08760775     0.15000
H36         H  0.12214029  0.38569635  0.15633348     0.14800
C37         C  0.12067604  0.36738799  0.39639240     0.86500
C38         C  0.10203232  0.33098237  0.40245649    -0.53700
C39         C  0.11761329  0.32036478  0.39200229     0.09500
C40         C  0.15034878  0.34714556  0.37601799     0.20400
C41         C  0.15536523  0.38613945  0.40896313    -0.54400
C42         C  0.17083835  0.37545024  0.39839491     0.09600
C43         C  0.12571864  0.37096330  0.36314450    -0.54000
C44         C  0.14147276  0.36066142  0.35234078     0.10100
H45         H  0.07896750  0.31523420  0.41462325     0.14700
H46         H  0.16313324  0.33870050  0.36730850     0.00400
H47         H  0.16650206  0.40585001  0.42499955     0.15000
H48         H  0.11781545  0.38111336  0.34929393     0.14800
Zr49       Zr  0.01386635  0.48903501  0.97601784     2.17500
O50         O  0.02481774  0.47644619  0.92874084    -0.51300
O51         O  0.03356338  0.46804556  0.00673752    -0.74500
O52         O  0.07147095  0.02695456  0.96366680    -0.81300
O53         O  0.42364683  0.41008396  0.97278078    -0.83000
O54         O  0.09196865  0.07819589  0.97711619    -0.78600
O55         O  0.47569051  0.43130370  0.96086921    -0.90300
O56         O  0.02687311  0.47592759  0.05413651    -0.76200
O57         O  0.03855832  0.02554946  0.01667326    -0.85700
O58         O  0.47521050  0.46198609  0.01537887    -0.85400
O59         O  0.02421149  0.03720622  0.95956933    -0.72200
O60         O  0.46464047  0.47766460  0.95902107    -0.84300
Zr61       Zr  0.46183085  0.03664683  0.02270544     2.26400
Zr62       Zr  0.04849896  0.07388669  0.00095420     2.06300
Zr63       Zr  0.42659872  0.45153661  0.99914400     2.10000
Zr64       Zr  0.49961217  0.99835568  0.05544255     1.78800
O65         O  0.38153780  0.42468908  0.96390775    -0.93100
O66         O  0.04796991  0.03439416  0.08672220    -0.40900
O67         O  0.45167106  0.48884876  0.03984408    -0.77600
O68         O  0.01012101  0.04751655  0.04097218    -0.96200
O69         O  0.50072728  0.06404930  0.98377230    -0.89500
O70         O  0.43663877  0.99931642  0.98236686    -0.92400
C71         C  0.03588420  0.46604005  0.03449747     1.01400
C72         C  0.44415737  0.40784313  0.96150155     1.14300
C73         C  0.09487344  0.05831103  0.96558886     1.05100
O74         O  0.09528934  0.10421035  0.03456135    -0.94500
O75         O  0.05167660  0.11608580  0.02609649    -0.90300
O76         O  0.49913855  0.09476683  0.03528498    -0.83400
C77         C  0.03067652  0.11842931  0.03569397     1.11700
O78         O  0.48795936  0.01595287  0.89605557    -0.96500
Zr79       Zr  0.47578319  0.02679400  0.94361857     1.88900
O80         O  0.44331230  0.05863604  0.99180911    -0.73200
O81         O  0.07663062  0.12058601  0.96760194    -0.52400
O82         O  0.01608438  0.07935956  0.91900846    -0.97100
O83         O  0.42562524  0.49124256  0.91338080    -0.54300
O84         O  0.45174321  0.05254092  0.94437533    -0.73700
C85         C  0.44213426  0.06178471  0.96406111     0.98700
O86         O  0.44899408  0.04504604  0.07117770    -0.62500
O87         O  0.39653541  0.40386735  0.03154807    -0.57300
O88         O  0.40306190  0.99925266  0.03277236    -0.94000
O89         O  0.38340714  0.44695911  0.02452196    -0.92400
O90         O  0.46216235  0.44857085  0.08225052    -0.92800
O91         O  0.48859134  0.00841791  0.10394331    -0.91500
C92         C  0.38029814  0.46723021  0.03463775     1.17500
H93         H  0.47006182  0.44158629  0.02048802     0.33500
H94         H  0.01887438  0.06207399  0.05770193     0.44300
H95         H  0.41574149  0.49404568  0.97775646     0.37800
H96         H  0.03946592  0.04672991  0.94332967     0.34300
H97         H  0.04569247  0.01958486  0.10156823     0.26100
H98         H  0.09985696  0.13594141  0.97446348     0.32000
H99         H  0.50223505  0.08213083  0.90667835     0.37900
H100        H  0.47623346  0.44648326  0.09403814     0.32400
H101        H  0.37505490  0.38709582  0.02163726     0.31300
H102        H  0.36620005  0.40114990  0.96955342     0.33000
H103        H  0.40984716  0.99098265  0.92247389     0.31900
H104        H  0.47200453  0.01083269  0.10052170     0.35900
H105        H  0.43529794  0.02318868  0.08075482     0.28700
H106        H  0.04207327  0.47504937  0.93264530     0.32900
H107        H  0.48426587  0.02690633  0.88148866     0.35700
H108        H  0.40809074  0.39519409  0.02995247     0.28400
H109        H  0.47015748  0.05824985  0.08206326     0.41200
H110        H  0.08525304  0.09796672  0.05436443     0.31300
H111        H  0.06670545  0.04113922  0.07430528     0.38900
H112        H  0.41767029  0.46878357  0.91623461     0.30800
H113        H  0.07740669  0.11215308  0.94858136     0.30800
H114        H  0.03375750  0.99367124  0.91682492     0.31100
Zr115      Zr  0.46062946  0.03293941  0.47493184     2.17500
O116        O  0.44780520  0.04486261  0.42848290    -0.51300
O117        O  0.44038535  0.05345950  0.50581333    -0.74500
O118        O  0.40178221  0.99321647  0.46350317    -0.81300
O119        O  0.05074556  0.11164005  0.47061700    -0.83000
O120        O  0.38089502  0.44277055  0.47810665    -0.78600
O121        O  0.49893490  0.09013706  0.45938971    -0.90300
O122        O  0.44930254  0.04837273  0.55328875    -0.76200
O123        O  0.43550486  0.99616611  0.51544144    -0.85700
O124        O  0.49980030  0.06076298  0.51388803    -0.85400
O125        O  0.44879262  0.48442007  0.45835591    -0.72200
O126        O  0.00941614  0.04395696  0.45740726    -0.84300
Zr127      Zr  0.01159354  0.48484955  0.52167527     2.26400
Zr128      Zr  0.42547639  0.44889790  0.50033721     2.06300
Zr129      Zr  0.04763601  0.07048932  0.49743829     2.10000
Zr130      Zr  0.47473117  0.02398035  0.55418521     1.78800
O131        O  0.09410479  0.09992960  0.46351202    -0.93100
O132        O  0.42764942  0.49049005  0.58600355    -0.40900
O133        O  0.02344702  0.03408564  0.53877492    -0.77600
O134        O  0.46419308  0.47568788  0.53998731    -0.96200
O135        O  0.47264579  0.45775812  0.48260891    -0.89500
O136        O  0.03787309  0.02226139  0.48191422    -0.92400
C137        C  0.43899343  0.05672060  0.53351518     1.01400
C138        C  0.02997164  0.11366197  0.45979739     1.14300
C139        C  0.37781308  0.46265948  0.46739501     1.05100
O140        O  0.37705536  0.41949557  0.53186897    -0.94500
O141        O  0.42105152  0.40745920  0.52766761    -0.90300
O142        O  0.47333386  0.42724217  0.53517687    -0.83400
C143        C  0.44174841  0.40458558  0.53678072     1.11700
O144        O  0.48970033  0.00514641  0.39362615    -0.96500
Zr145      Zr  0.49721505  0.49426038  0.44198930     1.88900
O146        O  0.02866164  0.46122935  0.49104567    -0.73200
O147        O  0.40044901  0.40276968  0.46655989    -0.52400
O148        O  0.45712521  0.44302006  0.41508801    -0.97100
O149        O  0.05093989  0.03185463  0.41458947    -0.54300
O150        O  0.02004491  0.46720345  0.44370102    -0.73700
C151        C  0.02945386  0.45775227  0.46329986     0.98700
O152        O  0.02500639  0.47612706  0.56958973    -0.62500
O153        O  0.07612560  0.11722298  0.53091773    -0.57300
O154        O  0.07183356  0.02359240  0.53103382    -0.94000
O155        O  0.09145057  0.07518598  0.52087279    -0.92400
O156        O  0.01322724  0.07471500  0.58184264    -0.92800
O157        O  0.48563376  0.01473451  0.60298619    -0.91500
C158        C  0.09501725  0.05507145  0.53006504     1.17500
H159        H  0.50513496  0.08133130  0.51875812     0.33500
H160        H  0.45555436  0.46154958  0.55692596     0.44300
H161        H  0.05838405  0.02763819  0.47650331     0.37800
H162        H  0.43310762  0.47464473  0.44241658     0.34300
H163        H  0.42762371  0.00431631  0.59905567     0.25500
H164        H  0.37824708  0.38503878  0.47484261     0.32000
H165        H  0.47055960  0.44046740  0.40271002     0.37900
H166        H  0.53583210  0.08136496  0.57768542     0.32400
H167        H  0.09755763  0.13458973  0.52123671     0.31300
H168        H  0.11369680  0.11672090  0.47565957     0.33000
H169        H  0.06689699  0.03112013  0.42449824     0.31900
H170        H  0.50561063  0.51518861  0.59915721     0.35900
H171        H  0.04202218  0.99613386  0.57875865     0.28700
H172        H  0.43092354  0.04662347  0.43318724     0.32900
H173        H  0.49437821  0.49840893  0.37947977     0.35700
H174        H  0.06394516  0.12523424  0.52963289     0.28400
H175        H  0.50406298  0.46368662  0.58066661     0.41200
H176        H  0.38607049  0.42868437  0.55168743     0.31300
H177        H  0.40900691  0.48435569  0.57387272     0.38900
H178        H  0.05923847  0.05428604  0.41864193     0.30800
H179        H  0.39614213  0.40952619  0.44842194     0.30800
H180        H  0.43601652  0.02448811  0.41661636     0.31100
C181        C  0.30608239  0.44480043  0.44184663     0.29800
C182        C  0.28576113  0.45154450  0.43402966    -0.36500
C183        C  0.25422654  0.42465712  0.42386411     0.15800
C184        C  0.24348820  0.39332908  0.42110667     0.21600
C185        C  0.26371190  0.38648297  0.42921167    -0.34600
C186        C  0.29513867  0.41333468  0.43980838     0.15700
O187        O  0.33655180  0.46633685  0.45179641    -0.26600
C188        C  0.34510618  0.44837459  0.45650823     0.05500
C189        C  0.32029085  0.41519378  0.44959455    -0.31500
O190        O  0.21299774  0.37193784  0.41109258    -0.23400
C191        C  0.20408678  0.38979734  0.40785467    -0.03400
C192        C  0.22871593  0.42272911  0.41543613    -0.17800
H193        H  0.29389742  0.47600247  0.43591486     0.20200
H194        H  0.25545711  0.36195839  0.42757376     0.18600
H195        H  0.32094258  0.39549537  0.45113288     0.18500
H196        H  0.22786299  0.44232700  0.41489691     0.14400
C197        C  0.06107662  0.41810186  0.45298007     0.29800
C198        C  0.07362039  0.40285320  0.46100459    -0.36500
C199        C  0.08374712  0.39400356  0.43776563     0.15800
C200        C  0.08170850  0.39988257  0.40877855     0.21600
C201        C  0.06880598  0.41462657  0.40077849    -0.34600
C202        C  0.05866526  0.42336517  0.42388930     0.15700
O203        O  0.05109059  0.42940945  0.47094194    -0.26600
C204        C  0.04208106  0.44185486  0.45298050     0.05500
C205        C  0.04616603  0.43863993  0.42350388    -0.31500
O206        O  0.09384740  0.39108773  0.39064636    -0.23400
C207        C  0.10376816  0.37923523  0.40807534    -0.03400
C208        C  0.09790243  0.38018486  0.43768319    -0.17800
H209        H  0.07583348  0.39869527  0.48370786     0.20200
H210        H  0.06732473  0.41947912  0.37810221     0.18600
H211        H  0.04110434  0.44683200  0.40455170     0.18500
H212        H  0.10402856  0.37261804  0.45632087     0.14400
C213        C  0.07713917  0.19323578  0.43022437     0.29800
C214        C  0.10598259  0.22472754  0.42171230    -0.36500
C215        C  0.10146997  0.24608870  0.41107672     0.15800
C216        C  0.07073934  0.23713442  0.40937238     0.21600
C217        C  0.04195829  0.20556605  0.41735347    -0.34600
C218        C  0.04642572  0.18417579  0.42767885     0.15700
O219        O  0.07554456  0.16970619  0.44180429    -0.26600
C220        C  0.04336029  0.14521873  0.44646149     0.05500
C221        C  0.02409731  0.15284398  0.43796492    -0.31500
O222        O  0.07234368  0.26169429  0.40142513    -0.23400
C223        C  0.10445117  0.28665716  0.39750223    -0.03400
C224        C  0.12382469  0.27837628  0.40289655    -0.17800
H225        H  0.13025866  0.23229317  0.42387973     0.20200
H226        H  0.01782201  0.19847775  0.41634856     0.18600
H227        H  0.49788071  0.13773896  0.44036073     0.18500
H228        H  0.15051480  0.29437203  0.40280870     0.14400
C229        C  0.15432190  0.35365416  0.27810928     0.29800
C230        C  0.15193898  0.33755546  0.25236974    -0.36500
C231        C  0.15448713  0.35225940  0.22567288     0.15800
C232        C  0.15917460  0.38079010  0.22472656     0.21600
C233        C  0.16235417  0.39715083  0.25017300    -0.34600
C234        C  0.15956917  0.38244674  0.27654107     0.15700
O235        O  0.14886237  0.34261812  0.30534706    -0.26600
C236        C  0.15048758  0.36466724  0.32102949     0.05500
C237        C  0.15748548  0.39007672  0.30418513    -0.31500
O238        O  0.15683263  0.38831903  0.19815690    -0.23400
C239        C  0.15083997  0.36464572  0.18143943    -0.03400
C240        C  0.14952727  0.34159384  0.19720511    -0.17800
H241        H  0.14660543  0.31432794  0.25308739     0.20200
H242        H  0.16476602  0.41880460  0.24944165     0.18600
H243        H  0.15892963  0.41031022  0.31109470     0.18500
H244        H  0.14317486  0.31904563  0.18923021     0.14400
C245        C  0.07613565  0.19736836  0.06629207     0.29800
C246        C  0.10381687  0.22732032  0.07851059    -0.36500
C247        C  0.09927639  0.24926604  0.08704850     0.15800
C248        C  0.06979116  0.24253691  0.08325129     0.21600
C249        C  0.04205123  0.21250200  0.07127551    -0.34600
C250        C  0.04639485  0.19031023  0.06325448     0.15700
O251        O  0.07474969  0.17323205  0.05680618    -0.26600
C252        C  0.04360404  0.15029153  0.04790724     0.05500
C253        C  0.02480747  0.15953532  0.05149751    -0.31500
O254        O  0.07161108  0.26730669  0.09125154    -0.23400
C255        C  0.10255925  0.29008812  0.10067985    -0.03400
C256        C  0.12080565  0.28005145  0.09882330    -0.17800
H257        H  0.12725771  0.23314547  0.08109749     0.20200
H258        H  0.01876430  0.20690045  0.06827445     0.18600
H259        H  0.99907270  0.14567981  0.04598554     0.18500
H260        H  0.14655708  0.29385202  0.10402896     0.14400
C261        C  0.29976570  0.41987961  0.06311037     0.29800
C262        C  0.26886418  0.39134017  0.07314073    -0.36500
C263        C  0.24625679  0.39518272  0.08150786     0.15800
C264        C  0.25346098  0.42497122  0.07983378     0.21600
C265        C  0.28450209  0.45357529  0.07032475    -0.34600
C266        C  0.30715328  0.44979068  0.06217478     0.15700
O267        O  0.32432612  0.42184762  0.05348283    -0.26600
C268        C  0.34785645  0.45351224  0.04655564     0.05500
C269        C  0.33853878  0.47205208  0.05163826    -0.31500
O270        O  0.22827085  0.42272813  0.08749114    -0.23400
C271        C  0.20467903  0.39117343  0.09456652    -0.03400
C272        C  0.21452955  0.37287016  0.09143163    -0.17800
H273        H  0.26274617  0.36773432  0.07403753     0.20200
H274        H  0.29043019  0.47707328  0.06901347     0.18600
H275        H  0.35267578  0.49805540  0.04767410     0.18500
H276        H  0.20019606  0.34682137  0.09509882     0.14400
C277        C  0.06598071  0.43457222  0.07399005     0.29800
C278        C  0.07502080  0.42725955  0.09920053    -0.36500
C279        C  0.08732424  0.41118676  0.09458341     0.15800
C280        C  0.09049253  0.40271978  0.06712365     0.21600
C281        C  0.08151449  0.41014411  0.04178098    -0.34600
C282        C  0.06929062  0.42640604  0.04637285     0.15700
O283        O  0.05392689  0.44950370  0.07337137    -0.26600
C284        C  0.04954483  0.45116594  0.04496710     0.05500
C285        C  0.05870077  0.43718940  0.02707718    -0.31500
O286        O  0.10294789  0.38808875  0.06811093    -0.23400
C287        C  0.10797449  0.38726736  0.09662774    -0.03400
C288        C  0.09850004  0.40133155  0.11403459    -0.17800
H289        H  0.07274687  0.43378360  0.12093304     0.20200
H290        H  0.08403935  0.40385473  0.02003936     0.18600
H291        H  0.05755949  0.43515762  0.00339525     0.18500
H292        H  0.09971131  0.40442231  0.13755423     0.14400
C293        C  0.38376241  0.11966250  0.56542469     0.29800
C294        C  0.39184061  0.11122286  0.54006647    -0.36500
C295        C  0.40471234  0.09562999  0.54478945     0.15800
C296        C  0.40948520  0.08912870  0.57252459     0.21600
C297        C  0.40157730  0.09768841  0.59771831    -0.34600
C298        C  0.38854628  0.11297759  0.59300460     0.15700
O299        O  0.37056030  0.13352620  0.56635612    -0.26600
C300        C  0.36663075  0.13553965  0.59492806     0.05500
C301        C  0.37767680  0.12321639  0.61248393    -0.31500
O302        O  0.42179226  0.07446694  0.57208426    -0.23400
C303        C  0.42499136  0.07137676  0.54370183    -0.03400
C304        C  0.41467566  0.08404611  0.52559526    -0.17800
H305        H  0.38803933  0.11613738  0.51826058     0.20200
H306        H  0.40505183  0.09247662  0.61952348     0.18600
H307        H  0.37771059  0.12159890  0.63609821     0.18500
H308        H  0.41479192  0.08483972  0.50186402     0.14400
C309        C  0.37552213  0.27216021  0.58569696     0.29800
C310        C  0.36792021  0.29180809  0.57778482    -0.36500
C311        C  0.39447888  0.32361939  0.56778613     0.15800
C312        C  0.42637093  0.33539654  0.56596576     0.21600
C313        C  0.43395965  0.31576796  0.57385816    -0.34600
C314        C  0.40736078  0.28386992  0.58356324     0.15700
O315        O  0.35435450  0.24129468  0.59466430    -0.26600
C316        C  0.37282005  0.23303309  0.59812029     0.05500
C317        C  0.40602762  0.25861112  0.59152877    -0.31500
O318        O  0.44723212  0.36551656  0.55529865    -0.23400
C319        C  0.42845354  0.37308991  0.54999486    -0.03400
C320        C  0.39540496  0.34798382  0.55740403    -0.17800
H321        H  0.34294955  0.28270726  0.57881139     0.20200
H322        H  0.45875829  0.32453727  0.57200183     0.18600
H323        H  0.42618512  0.25851102  0.59213733     0.18500
H324        H  0.37501937  0.34759966  0.55506338     0.14400
C325        C  0.22276108  0.09867231  0.57361151     0.29800
C326        C  0.19205168  0.07007947  0.56347804    -0.36500
C327        C  0.16938757  0.07367558  0.55504783     0.15800
C328        C  0.17654465  0.10347262  0.55608600     0.21600
C329        C  0.20724835  0.13210866  0.56648296    -0.34600
C330        C  0.22979029  0.12838366  0.57538666     0.15700
O331        O  0.24755030  0.10079612  0.58239362    -0.26600
C332        C  0.27070476  0.13216729  0.59037569     0.05500
C333        C  0.26101861  0.15053775  0.58660657    -0.31500
O334        O  0.15160410  0.10107570  0.54701335    -0.23400
C335        C  0.12808712  0.06925524  0.54040924    -0.03400
C336        C  0.13781678  0.05105870  0.54498733    -0.17800
H337        H  0.18618657  0.04659731  0.56236351     0.20200
H338        H  0.21306222  0.15556280  0.56771515     0.18600
H339        H  0.27517311  0.17651119  0.59085734     0.18500
H340        H  0.12363526  0.02495383  0.54148181     0.14400
C341        C  0.31362169  0.14383710  0.72243413     0.29800
C342        C  0.30726509  0.12622467  0.74799512    -0.36500
C343        C  0.31228772  0.14221026  0.77440926     0.15800
C344        C  0.32292795  0.17354883  0.77594564     0.21600
C345        C  0.32848983  0.19098144  0.75010476    -0.34600
C346        C  0.32334152  0.17482571  0.72338919     0.15700
O347        O  0.31418166  0.13481641  0.69577854    -0.26600
C348        C  0.32382622  0.15995925  0.67901901     0.05500
C349        C  0.32956613  0.18552773  0.69488819    -0.31500
O350        O  0.32994957  0.18505440  0.80323087    -0.23400
C351        C  0.32362418  0.16058417  0.81904066    -0.03400
C352        C  0.31218706  0.13332819  0.80216232    -0.17800
H353        H  0.30069948  0.10239112  0.74735611     0.20200
H354        H  0.33786457  0.21597438  0.75075572     0.18600
H355        H  0.33947768  0.20943201  0.68691880     0.18500
H356        H  0.30688219  0.11102297  0.80914518     0.14400
C357        C  0.41262094  0.09403026  0.92505200     0.29800
C358        C  0.40411344  0.10207222  0.90000561    -0.36500
C359        C  0.39021557  0.11652006  0.90502558     0.15800
C360        C  0.38510805  0.12285640  0.93269963     0.21600
C361        C  0.39370077  0.11485852  0.95786679    -0.34600
C362        C  0.40751145  0.10020704  0.95286305     0.15700
O363        O  0.42554025  0.07993637  0.92535453    -0.26600
C364        C  0.42874567  0.07692777  0.95374259     0.05500
C365        C  0.41795623  0.08914928  0.97191794    -0.31500
O366        O  0.37144178  0.13627946  0.93202953    -0.23400
C367        C  0.36760843  0.13842631  0.90349681    -0.03400
C368        C  0.37905780  0.12649695  0.88577318    -0.17800
H369        H  0.40783578  0.09717225  0.87810169     0.20200
H370        H  0.38969469  0.11949630  0.97976303     0.18600
H371        H  0.41771057  0.08963988  0.99565213     0.18500
H372        H  0.37937623  0.12510050  0.86215617     0.14400
C373        C  0.42776774  0.33790086  0.93203173     0.29800
C374        C  0.43496041  0.31804582  0.92352675    -0.36500
C375        C  0.40810941  0.28633177  0.91354132     0.15800
C376        C  0.37638242  0.27495741  0.91168126     0.21600
C377        C  0.36918048  0.29482951  0.92017949    -0.34600
C378        C  0.39598387  0.32644299  0.93052524     0.15700
O379        O  0.44896797  0.36806126  0.94277817    -0.26600
C380        C  0.43050449  0.37598549  0.94846085     0.05500
C381        C  0.39732509  0.35099395  0.94130990    -0.31500
O382        O  0.35484411  0.24399858  0.90285451    -0.23400
C383        C  0.37297952  0.23535976  0.89929873    -0.03400
C384        C  0.40633678  0.26081283  0.90548927    -0.17800
H385        H  0.45963807  0.32648209  0.92517613     0.20200
H386        H  0.34430620  0.28599767  0.91941444     0.18600
H387        H  0.37715522  0.35093020  0.94380600     0.18500
H388        H  0.42626289  0.26035855  0.90490193     0.14400
C389        C  0.22956946  0.12826443  0.91816896     0.29800
C390        C  0.20912499  0.13487230  0.92659868    -0.36500
C391        C  0.17741556  0.10777614  0.93662252     0.15800
C392        C  0.16626776  0.07621010  0.93763077     0.21600
C393        C  0.18678742  0.06967130  0.92948909    -0.34600
C394        C  0.21870505  0.09686184  0.92012274     0.15700
O395        O  0.26046930  0.14999162  0.90892278    -0.26600
C396        C  0.26965031  0.13232172  0.90543930     0.05500
C397        C  0.24462354  0.09913670  0.91210608    -0.31500
O398        O  0.13572695  0.05455139  0.94759449    -0.23400
C399        C  0.12734169  0.07255059  0.95349390    -0.03400
C400        C  0.15235037  0.10584180  0.94717697    -0.17800
H401        H  0.21752620  0.15948617  0.92585865     0.20200
H402        H  0.17862425  0.04517790  0.93082393     0.18600
H403        H  0.24544697  0.07952546  0.91125655     0.18500
H404        H  0.15201813  0.12566898  0.94991914     0.14400
C405        C  0.35197448  0.65233037  0.89181403     0.86500
C406        C  0.37191997  0.68851503  0.90014597    -0.53700
C407        C  0.35805252  0.70145270  0.89126687     0.09500
C408        C  0.32511074  0.67660902  0.87458529     0.20400
C409        C  0.31743481  0.63436058  0.90443017    -0.54400
C410        C  0.30322087  0.64691557  0.89549221     0.09600
C411        C  0.34725160  0.65108250  0.85853112    -0.54000
C412        C  0.33304859  0.66350305  0.84935281     0.10100
H413        H  0.39470921  0.70232839  0.91264663     0.14700
H414        H  0.31355518  0.68675411  0.86720610     0.00400
H415        H  0.30543818  0.61358889  0.91926621     0.15000
H416        H  0.35358242  0.64049885  0.84322537     0.14800
C417        C  0.35064382  0.64891635  0.60512278     0.86500
C418        C  0.31655563  0.63144508  0.59153806    -0.53700
C419        C  0.30253195  0.64436128  0.59990570     0.09500
C420        C  0.32389089  0.67354893  0.62152283     0.20400
C421        C  0.37128846  0.68537727  0.59735398    -0.54400
C422        C  0.35726096  0.69830463  0.60575566     0.09600
C423        C  0.34481297  0.64713790  0.63829468    -0.54000
C424        C  0.33093109  0.66002956  0.64696119     0.10100
H425        H  0.30472861  0.61086856  0.57636583     0.14700
H426        H  0.31251481  0.68396538  0.62868722     0.00400
H427        H  0.39445168  0.69932053  0.58539596     0.15000
H428        H  0.35077043  0.63654543  0.65393222     0.14800
C429        C  0.12352540  0.87397320  0.10788649     0.86500
C430        C  0.15782335  0.89148342  0.09463529    -0.53700
C431        C  0.17190047  0.87879236  0.10343148     0.09500
C432        C  0.15053781  0.84986819  0.12507645     0.20400
C433        C  0.10308610  0.83737741  0.10040079    -0.54400
C434        C  0.11725457  0.82473095  0.10911487     0.09600
C435        C  0.12917751  0.87616537  0.14111047    -0.54000
C436        C  0.14331726  0.86366788  0.15016225     0.10100
H437        H  0.16981765  0.91199562  0.07947289     0.14700
H438        H  0.16224120  0.83994754  0.13261234     0.00400
H439        H  0.07998698  0.82307755  0.08828612     0.15000
H440        H  0.12316311  0.88701037  0.15646234     0.14800
C441        C  0.12043575  0.86660722  0.39618418     0.86500
C442        C  0.10110727  0.82998943  0.40170820    -0.53700
C443        C  0.11633376  0.81908160  0.39101774     0.09500
C444        C  0.14938505  0.84574812  0.37540291     0.20400
C445        C  0.15492799  0.88454778  0.40894477    -0.54400
C446        C  0.17010554  0.87360831  0.39813839     0.09600
C447        C  0.12578602  0.87067237  0.36295568    -0.54000
C448        C  0.14119943  0.86005321  0.35198985     0.10100
H449        H  0.07792462  0.81433814  0.41371672     0.14700
H450        H  0.16183408  0.83703649  0.36645261     0.00400
H451        H  0.16624872  0.90415175  0.42510773     0.15000
H452        H  0.11836673  0.88137516  0.34926082     0.14800
Zr453      Zr  0.01297339  0.98826421  0.97618641     2.17500
O454        O  0.02272268  0.97388094  0.92926768    -0.51300
O455        O  0.03336517  0.96804491  0.00685525    -0.74500
O456        O  0.07289028  0.52916354  0.96466733    -0.81300
O457        O  0.42325840  0.91107095  0.96944572    -0.83000
O458        O  0.09239268  0.58081929  0.97466647    -0.78600
O459        O  0.47553228  0.93120015  0.96072939    -0.90300
O460        O  0.02511810  0.97428223  0.05427564    -0.76200
O461        O  0.03966335  0.52689264  0.01600252    -0.85700
O462        O  0.47445232  0.96105454  0.01529040    -0.85400
O463        O  0.02406030  0.53735955  0.95915551    -0.72200
O464        O  0.46463052  0.97763885  0.95883093    -0.84300
Zr465      Zr  0.46192226  0.53725049  0.02319204     2.26400
Zr466      Zr  0.04872160  0.57476372  0.00010085     2.06300
Zr467      Zr  0.42621909  0.95105292  0.99875734     2.10000
Zr468      Zr  0.50085780  0.49974515  0.05516490     1.78800
O469        O  0.37653291  0.91934075  0.96862335    -0.93100
O470        O  0.04966233  0.53651202  0.08608837    -0.40900
O471        O  0.45070230  0.98790486  0.03972294    -0.77600
O472        O  0.01098806  0.54861192  0.04049750    -0.96200
O473        O  0.50022932  0.56416123  0.98378022    -0.89500
O474        O  0.43629964  0.49951969  0.98316745    -0.92400
C475        C  0.03504327  0.96536186  0.03457676     1.01400
C476        C  0.44396455  0.90847171  0.95943386     1.14300
C477        C  0.09575950  0.56073059  0.96478201     1.05100
O478        O  0.09438178  0.60257715  0.03484712    -0.94500
O479        O  0.05175509  0.61712625  0.02490099    -0.90300
O480        O  0.49915343  0.59561700  0.03521655    -0.83400
C481        C  0.03073142  0.61935002  0.03478612     1.11700
O482        O  0.48609556  0.51492248  0.89627147    -0.96500
Zr483      Zr  0.47490863  0.52639948  0.94397726     1.88900
O484        O  0.44248106  0.55830761  0.99200725    -0.73200
O485        O  0.07645212  0.62194439  0.96738486    -0.52400
O486        O  0.01562465  0.57802787  0.91797795    -0.97100
O487        O  0.42730910  0.99300803  0.91195831    -0.54300
O488        O  0.45133506  0.55261979  0.94457542    -0.73700
C489        C  0.44159601  0.56175146  0.96424476     0.98700
O490        O  0.45008176  0.54695817  0.07161860    -0.62500
O491        O  0.40194816  0.90568238  0.03311964    -0.57300
O492        O  0.40343709  0.49870890  0.03508467    -0.94000
O493        O  0.38331940  0.94736720  0.02372313    -0.92400
O494        O  0.46151872  0.94680491  0.08222548    -0.92800
O495        O  0.48950582  0.50870419  0.10398513    -0.91500
C496        C  0.38003456  0.96779356  0.03291882     1.17500
H497        H  0.46928273  0.94060100  0.02018556     0.33500
H498        H  0.01994510  0.56337287  0.05708951     0.44300
H499        H  0.41620864  0.99399050  0.97671948     0.37800
H500        H  0.03904895  0.54675376  0.94271973     0.34300
H501        H  0.04852368  0.52171306  0.10007476     0.26100
H502        H  0.10010754  0.63638533  0.97284209     0.32000
H503        H  0.50502818  0.58732673  0.91443008     0.37900
H504        H  0.47554491  0.94704961  0.09658782     0.32400
H505        H  0.37790105  0.89068136  0.02918984     0.31300
H506        H  0.36071466  0.89805867  0.97897950     0.33000
H507        H  0.40882528  0.49079148  0.92323567     0.31900
H508        H  0.47481984  0.51358060  0.10056763     0.35900
H509        H  0.43806367  0.52579514  0.08215189     0.28700
H510        H  0.03987404  0.97233477  0.93317763     0.32900
H511        H  0.48267591  0.52618267  0.88182071     0.35700
H512        H  0.40877915  0.89346923  0.02598658     0.28400
H513        H  0.47169153  0.56186672  0.08177775     0.41200
H514        H  0.10451313  0.59258965  0.03174344     0.31300
H515        H  0.06854090  0.54467933  0.07314709     0.38900
H516        H  0.42010541  0.97070308  0.91304813     0.30800
H517        H  0.07523142  0.61328734  0.94773675     0.30800
H518        H  0.03599033  0.49666603  0.91688865     0.31100
Zr519      Zr  0.46055364  0.53356915  0.47523941     2.17500
O520        O  0.44831619  0.54745895  0.42972693    -0.51300
O521        O  0.44299980  0.55637788  0.50621198    -0.74500
O522        O  0.40125890  0.49400069  0.46520683    -0.81300
O523        O  0.05162242  0.61151710  0.46866729    -0.83000
O524        O  0.38201047  0.94183125  0.47477843    -0.78600
O525        O  0.49936860  0.59012954  0.45854771    -0.90300
O526        O  0.45146177  0.55059759  0.55363318    -0.76200
O527        O  0.43601885  0.49755121  0.51624744    -0.85700
O528        O  0.50050567  0.56155751  0.51354841    -0.85400
O529        O  0.45027290  0.98443338  0.45806879    -0.72200
O530        O  0.00822974  0.54325614  0.45679140    -0.84300
Zr531      Zr  0.01245346  0.98513116  0.52230463     2.26400
Zr532      Zr  0.42597549  0.94805378  0.49938589     2.06300
Zr533      Zr  0.04759776  0.57014855  0.49592638     2.10000
Zr534      Zr  0.47601872  0.52539771  0.55435341     1.78800
O535        O  0.09230508  0.59534115  0.46047442    -0.93100
O536        O  0.42570638  0.98900562  0.58502804    -0.40900
O537        O  0.02387439  0.53452556  0.53763368    -0.77600
O538        O  0.46380061  0.97468637  0.53983590    -0.96200
O539        O  0.47400046  0.95773668  0.48288084    -0.89500
O540        O  0.03632194  0.52112387  0.48073707    -0.92400
C541        C  0.44185861  0.55969485  0.53390458     1.01400
C542        C  0.03071902  0.61333348  0.45785401     1.14300
C543        C  0.37876617  0.96174803  0.46432378     1.05100
O544        O  0.37676399  0.91685987  0.53007430    -0.94500
O545        O  0.42131909  0.90633519  0.52647733    -0.90300
O546        O  0.47343997  0.92711062  0.53709241    -0.83400
C547        C  0.44186224  0.90396306  0.53718569     1.11700
O548        O  0.48730216  0.50644613  0.39404239    -0.96500
Zr549      Zr  0.49929493  0.99491878  0.44272351     1.88900
O550        O  0.03040406  0.96198598  0.49250013    -0.73200
O551        O  0.40313698  0.90269262  0.46524486    -0.52400
O552        O  0.46148694  0.94448879  0.41411580    -0.97100
O553        O  0.04647313  0.52743859  0.41172178    -0.54300
O554        O  0.02297811  0.96894524  0.44511111    -0.73700
C555        C  0.03201058  0.95920633  0.46479406     0.98700
O556        O  0.02391662  0.97426051  0.57018710    -0.62500
O557        O  0.07780675  0.61788360  0.52842136    -0.57300
O558        O  0.07083318  0.52299852  0.53075981    -0.94000
O559        O  0.09086317  0.57471603  0.52031171    -0.92400
O560        O  0.01634455  0.57649947  0.58109391    -0.92800
O561        O  0.48767303  0.51569594  0.60260418    -0.91500
C562        C  0.09411310  0.55446249  0.52981633     1.17500
H563        H  0.50618576  0.58231849  0.51825398     0.33500
H564        H  0.45477120  0.96035354  0.55665513     0.44300
H565        H  0.05652773  0.52602423  0.47499418     0.37800
H566        H  0.43509386  0.97476404  0.44174201     0.34300
H567        H  0.43066282  0.50559019  0.60108278     0.25500
H568        H  0.38159646  0.88390683  0.47389365     0.32000
H569        H  0.47584634  0.94211447  0.40318240     0.37900
H570        H  0.53689639  0.58327166  0.57765609     0.32400
H571        H  0.09692828  0.63604503  0.51667016     0.31300
H572        H  0.11014143  0.61775406  0.46826675     0.33000
H573        H  0.06327458  0.52840168  0.42221471     0.31900
H574        H  0.49657100  0.00563734  0.59942345     0.35900
H575        H  0.03846467  0.49785555  0.57947676     0.28700
H576        H  0.43195100  0.54973762  0.43512003     0.32900
H577        H  0.49869348  0.99838982  0.37987679     0.35700
H578        H  0.06366549  0.62361680  0.53043256     0.28400
H579        H  0.50478455  0.96469937  0.58227595     0.41200
H580        H  0.38515862  0.92584749  0.55006291     0.31300
H581        H  0.40713333  0.98162934  0.57204394     0.38900
H582        H  0.05448204  0.55004097  0.41340162     0.30800
H583        H  0.39733526  0.90854511  0.44749296     0.30800
H584        H  0.43593141  0.52728732  0.41750577     0.31100
C585        C  0.30692230  0.94380741  0.43849685     0.29800
C586        C  0.28571679  0.94998156  0.43266452    -0.36500
C587        C  0.25424472  0.92315014  0.42224760     0.15800
C588        C  0.24440582  0.89246310  0.41720052     0.21600
C589        C  0.26559824  0.88621572  0.42317699    -0.34600
C590        C  0.29689987  0.91292350  0.43425707     0.15700
O591        O  0.33709906  0.96513091  0.44921069    -0.26600
C592        C  0.34639760  0.94758959  0.45231148     0.05500
C593        C  0.32238531  0.91493231  0.44340217    -0.31500
O594        O  0.21368488  0.87095490  0.40757696    -0.23400
C595        C  0.20369888  0.88806674  0.40695504    -0.03400
C596        C  0.22791070  0.92063038  0.41585404    -0.17800
H597        H  0.29301531  0.97387625  0.43653589     0.20200
H598        H  0.25800679  0.86210886  0.41996881     0.18600
H599        H  0.32357052  0.89555545  0.44369910     0.18500
H600        H  0.22633790  0.93970075  0.41736992     0.14400
C601        C  0.06420329  0.92014774  0.45422599     0.29800
C602        C  0.07593911  0.90404212  0.46191361    -0.36500
C603        C  0.08562602  0.89498219  0.43842331     0.15800
C604        C  0.08401437  0.90154331  0.40955511     0.21600
C605        C  0.07223832  0.91742589  0.40193497    -0.34600
C606        C  0.06247706  0.92628917  0.42524489     0.15700
O607        O  0.05379911  0.93094746  0.47234312    -0.26600
C608        C  0.04526901  0.94394535  0.45452125     0.05500
C609        C  0.05018688  0.94171872  0.42506434    -0.31500
O610        O  0.09523050  0.89202201  0.39111532    -0.23400
C611        C  0.10419152  0.87905092  0.40821028    -0.03400
C612        C  0.09856133  0.87996234  0.43790924    -0.17800
H613        H  0.07754083  0.89907813  0.48451281     0.20200
H614        H  0.07097427  0.92270584  0.37935503     0.18600
H615        H  0.04541684  0.95030046  0.40622261     0.18500
H616        H  0.10411440  0.87162584  0.45633769     0.14400
C617        C  0.07664838  0.69204324  0.42713658     0.29800
C618        C  0.10504840  0.72327295  0.41777942    -0.36500
C619        C  0.10014585  0.74464363  0.40832932     0.15800
C620        C  0.06950201  0.73599393  0.40844547     0.21600
C621        C  0.04110715  0.70468160  0.41733920    -0.34600
C622        C  0.04595860  0.68326684  0.42649738     0.15700
O623        O  0.07553971  0.66859623  0.43805027    -0.26600
C624        C  0.04367032  0.64447854  0.44416413     0.05500
C625        C  0.02414786  0.65221859  0.43730855    -0.31500
O626        O  0.07097756  0.76065166  0.40131147    -0.23400
C627        C  0.10289952  0.78530649  0.39616685    -0.03400
C628        C  0.12223309  0.77675904  0.39992116    -0.17800
H629        H  0.12933334  0.73067697  0.41851742     0.20200
H630        H  0.01705449  0.69781715  0.41788044     0.18600
H631        H  0.49817071  0.63755217  0.44087164     0.18500
H632        H  0.14886140  0.79249850  0.39868739     0.14400
C633        C  0.15474549  0.85381127  0.27781880     0.29800
C634        C  0.15222106  0.83782389  0.25194409    -0.36500
C635        C  0.15526040  0.85298195  0.22538572     0.15800
C636        C  0.16051949  0.88182852  0.22467019     0.21600
C637        C  0.16383378  0.89807369  0.25027542    -0.34600
C638        C  0.16056822  0.88292149  0.27651793     0.15700
O639        O  0.14878576  0.84235262  0.30492775    -0.26600
C640        C  0.15062461  0.86443010  0.32079045     0.05500
C641        C  0.15833297  0.89030854  0.30422304    -0.31500
O642        O  0.15850857  0.88975454  0.19814578    -0.23400
C643        C  0.15218991  0.86602589  0.18124577    -0.03400
C644        C  0.15029942  0.84254312  0.19684846    -0.17800
H645        H  0.14639507  0.81434875  0.25245348     0.20200
H646        H  0.16666327  0.91997370  0.24974776     0.18600
H647        H  0.16006158  0.91066205  0.31132918     0.18500
H648        H  0.14351157  0.81984857  0.18871974     0.14400
C649        C  0.07631562  0.69847856  0.06539416     0.29800
C650        C  0.10426799  0.72865465  0.07707655    -0.36500
C651        C  0.09966707  0.75029302  0.08663400     0.15800
C652        C  0.06980927  0.74306868  0.08434069     0.21600
C653        C  0.04174400  0.71274599  0.07295842    -0.34600
C654        C  0.04621206  0.69087172  0.06382683     0.15700
O655        O  0.07504897  0.67464579  0.05510060    -0.26600
C656        C  0.04362739  0.65127879  0.04709200     0.05500
C657        C  0.02452327  0.66000950  0.05210288    -0.31500
O658        O  0.07168273  0.76777300  0.09284670    -0.23400
C659        C  0.10306580  0.79099404  0.10108041    -0.03400
C660        C  0.12150254  0.78128221  0.09798635    -0.17800
H661        H  0.12800945  0.73492146  0.07844083     0.20200
H662        H  0.01816725  0.70676177  0.07108370     0.18600
H663        H  0.99849492  0.64573228  0.04760885     0.18500
H664        H  0.14754085  0.79544869  0.10204320     0.14400
C665        C  0.29910090  0.92047978  0.06011835     0.29800
C666        C  0.26773411  0.89173569  0.06896171    -0.36500
C667        C  0.24562449  0.89585478  0.07835186     0.15800
C668        C  0.25368288  0.92609877  0.07870495     0.21600
C669        C  0.28517514  0.95488753  0.07028463    -0.34600
C670        C  0.30735308  0.95080848  0.06111501     0.15700
O671        O  0.32339383  0.92229044  0.05001097    -0.26600
C672        C  0.34759375  0.95423160  0.04461098     0.05500
C673        C  0.33902080  0.97315439  0.05125271    -0.31500
O674        O  0.22892189  0.92412982  0.08741700    -0.23400
C675        C  0.20482882  0.89228015  0.09317278    -0.03400
C676        C  0.21383745  0.87351866  0.08801231    -0.17800
H677        H  0.26097098  0.86781671  0.06837631     0.20200
H678        H  0.29182734  0.97876014  0.07062643     0.18600
H679        H  0.35384532  0.99948264  0.04880908     0.18500
H680        H  0.19899099  0.84723207  0.09039139     0.14400
C681        C  0.06540085  0.93420365  0.07389494     0.29800
C682        C  0.07408431  0.92662861  0.09914054    -0.36500
C683        C  0.08674870  0.91093062  0.09456703     0.15800
C684        C  0.09055958  0.90302672  0.06709115     0.21600
C685        C  0.08185988  0.91064073  0.04168067    -0.34600
C686        C  0.06929334  0.92657608  0.04624962     0.15700
O687        O  0.05307424  0.94884437  0.07330769    -0.26600
C688        C  0.04905358  0.95084223  0.04491264     0.05500
C689        C  0.05878035  0.93742984  0.02695207    -0.31500
O690        O  0.10340432  0.88880062  0.06815822    -0.23400
C691        C  0.10804428  0.88773279  0.09672435    -0.03400
C692        C  0.09788330  0.90112966  0.11410963    -0.17800
H693        H  0.07131741  0.93272957  0.12087700     0.20200
H694        H  0.08487180  0.90476825  0.01993551     0.18600
H695        H  0.05796213  0.93572024  0.00324987     0.18500
H696        H  0.09863836  0.90380506  0.13766301     0.14400
C697        C  0.38475497  0.62057887  0.56520997     0.29800
C698        C  0.39438103  0.61357334  0.54002268    -0.36500
C699        C  0.40783875  0.59862124  0.54494710     0.15800
C700        C  0.41167254  0.59131320  0.57271146     0.21600
C701        C  0.40214290  0.59836702  0.59775529    -0.34600
C702        C  0.38856752  0.61307648  0.59282378     0.15700
O703        O  0.37121674  0.63408902  0.56592745    -0.26600
C704        C  0.36616973  0.63512193  0.59439220     0.05500
C705        C  0.37664553  0.62234655  0.61209538    -0.31500
O706        O  0.42429195  0.57697920  0.57239135    -0.23400
C707        C  0.42856040  0.57491278  0.54406653    -0.03400
C708        C  0.41881288  0.58802204  0.52587153    -0.17800
H709        H  0.39132487  0.61910020  0.51818591     0.20200
H710        H  0.40484084  0.59249348  0.61957395     0.18600
H711        H  0.37585608  0.61999857  0.63567433     0.18500
H712        H  0.41949146  0.58929239  0.50215134     0.14400
C713        C  0.37474080  0.77161896  0.58658243     0.29800
C714        C  0.36735463  0.79139342  0.57848747    -0.36500
C715        C  0.39409416  0.82314373  0.56852382     0.15800
C716        C  0.42596598  0.83480641  0.56706573     0.21600
C717        C  0.43335074  0.81510692  0.57525852    -0.34600
C718        C  0.40656980  0.78324203  0.58478562     0.15700
O719        O  0.35334388  0.74057712  0.59502459    -0.26600
C720        C  0.37170188  0.73218100  0.59843096     0.05500
C721        C  0.40501753  0.75781449  0.59243086    -0.31500
O722        O  0.44700273  0.86484857  0.55629101    -0.23400
C723        C  0.42835269  0.87247265  0.55052921    -0.03400
C724        C  0.39521536  0.84747406  0.55770902    -0.17800
H725        H  0.34239807  0.78236162  0.57915004     0.20200
H726        H  0.45809981  0.82372090  0.57357165     0.18600
H727        H  0.42509247  0.75759229  0.59302491     0.18500
H728        H  0.37491170  0.84716087  0.55499289     0.14400
C729        C  0.22237249  0.59792323  0.57117432     0.29800
C730        C  0.19193967  0.56961892  0.56027608    -0.36500
C731        C  0.16882565  0.57302777  0.55321576     0.15800
C732        C  0.17539504  0.60244414  0.55605164     0.21600
C733        C  0.20584700  0.63077978  0.56706124    -0.34600
C734        C  0.22874195  0.62717240  0.57473718     0.15700
O735        O  0.24733864  0.60010837  0.57944822    -0.26600
C736        C  0.26989031  0.63103699  0.58885669     0.05500
C737        C  0.25965563  0.64903196  0.58651472    -0.31500
O738        O  0.15015295  0.59997216  0.54801380    -0.23400
C739        C  0.12701801  0.56845853  0.54030640    -0.03400
C740        C  0.13725085  0.55052387  0.54316938    -0.17800
H741        H  0.18651746  0.54643859  0.55779811     0.20200
H742        H  0.21115830  0.65388246  0.56978879     0.18600
H743        H  0.27319010  0.67458767  0.59218972     0.18500
H744        H  0.12345904  0.52471291  0.53838812     0.14400
C745        C  0.31339677  0.64337881  0.72163579     0.29800
C746        C  0.30708742  0.62588412  0.74726397    -0.36500
C747        C  0.31261513  0.64219425  0.77359813     0.15800
C748        C  0.32387702  0.67378619  0.77498091     0.21600
C749        C  0.32964616  0.69120274  0.74908927    -0.34600
C750        C  0.32378129  0.67465101  0.72246937     0.15700
O751        O  0.31307237  0.63384544  0.69496010    -0.26600
C752        C  0.32278372  0.65894292  0.67810620     0.05500
C753        C  0.32952271  0.68502052  0.69390807    -0.31500
O754        O  0.33079441  0.68533112  0.80223096    -0.23400
C755        C  0.32370454  0.66060634  0.81819363    -0.03400
C756        C  0.31195852  0.63317283  0.80143717    -0.17800
H757        H  0.29988461  0.60176051  0.74671504     0.20200
H758        H  0.33940536  0.71633721  0.74962680     0.18600
H759        H  0.33975294  0.70898775  0.68581610     0.18500
H760        H  0.30598644  0.61059413  0.80859660     0.14400
C761        C  0.41399975  0.59577641  0.92496391     0.29800
C762        C  0.40624823  0.60443883  0.89979483    -0.36500
C763        C  0.39131525  0.61789466  0.90459835     0.15800
C764        C  0.38488463  0.62305084  0.93220522     0.21600
C765        C  0.39284990  0.61457193  0.95748255    -0.34600
C766        C  0.40739768  0.60062143  0.95268799     0.15700
O767        O  0.42696513  0.58172290  0.92543548    -0.26600
C768        C  0.42864177  0.57732990  0.95383729     0.05500
C769        C  0.41686381  0.58868496  0.97186256    -0.31500
O770        O  0.37050742  0.63574471  0.93137701    -0.23400
C771        C  0.36746022  0.63855042  0.90281359    -0.03400
C772        C  0.38009028  0.62772451  0.88520094    -0.17800
H773        H  0.41100100  0.60042769  0.87795020     0.20200
H774        H  0.38760782  0.61811261  0.97930189     0.18600
H775        H  0.41518022  0.58788737  0.99555867     0.18500
H776        H  0.38128657  0.62714468  0.86157933     0.14400
C777        C  0.42781073  0.83844865  0.93079346     0.29800
C778        C  0.43453278  0.81779905  0.92423868    -0.36500
C779        C  0.40794955  0.78648425  0.91328608     0.15800
C780        C  0.37691808  0.77616910  0.90871142     0.21600
C781        C  0.37025160  0.79695713  0.91508188    -0.34600
C782        C  0.39675114  0.82817223  0.92643580     0.15700
O783        O  0.44864166  0.86817492  0.94245244    -0.26600
C784        C  0.43064985  0.87701250  0.94582198     0.05500
C785        C  0.39818299  0.85309363  0.93623836    -0.31500
O786        O  0.35539400  0.74527450  0.89955969    -0.23400
C787        C  0.37287439  0.73565430  0.89844537    -0.03400
C788        C  0.40576475  0.76043331  0.90662519    -0.17800
H789        H  0.45857482  0.82528757  0.92815643     0.20200
H790        H  0.34589629  0.78903092  0.91217785     0.18600
H791        H  0.37844851  0.85383505  0.93679884     0.18500
H792        H  0.42519045  0.75930755  0.90810590     0.14400
C793        C  0.22935785  0.62868128  0.91583305     0.29800
C794        C  0.20848914  0.63528338  0.92223995    -0.36500
C795        C  0.17733683  0.60891338  0.93380552     0.15800
C796        C  0.16720076  0.57803250  0.93819956     0.21600
C797        C  0.18806104  0.57147919  0.93188356    -0.34600
C798        C  0.21935444  0.59796008  0.92086812     0.15700
O799        O  0.25990246  0.64989154  0.90573192    -0.26600
C800        C  0.26966445  0.63258532  0.90468801     0.05500
C801        C  0.24537572  0.60010902  0.91380885    -0.31500
O802        O  0.13721196  0.55703787  0.94935902    -0.23400
C803        C  0.12808002  0.57473914  0.95254647    -0.03400
C804        C  0.15208203  0.60723502  0.94326670    -0.17800
H805        H  0.21621329  0.65941518  0.91894071     0.20200
H806        H  0.18062046  0.54754815  0.93577956     0.18600
H807        H  0.24667913  0.58085104  0.91514120     0.18500
H808        H  0.15102052  0.62669998  0.94345805     0.14400
C809        C  0.85209486  0.15228211  0.89257024     0.86500
C810        C  0.87228992  0.18850972  0.90074474    -0.53700
C811        C  0.85846015  0.20145983  0.89194700     0.09500
C812        C  0.82538573  0.17672583  0.87543242     0.20400
C813        C  0.81758224  0.13447881  0.90534182    -0.54400
C814        C  0.80346384  0.14714692  0.89641455     0.09600
C815        C  0.84718230  0.15090987  0.85928521    -0.54000
C816        C  0.83300959  0.16338263  0.85014887     0.10100
H817        H  0.89512552  0.20235533  0.91320775     0.14700
H818        H  0.81394478  0.18700813  0.86812581     0.00400
H819        H  0.80541188  0.11362110  0.92011048     0.15000
H820        H  0.85342149  0.14027988  0.84394219     0.14800
C821        C  0.85140122  0.14931404  0.60588388     0.86500
C822        C  0.81711761  0.13177418  0.59275387    -0.53700
C823        C  0.80335274  0.14492019  0.60116400     0.09500
C824        C  0.82518204  0.17447803  0.62236811     0.20400
C825        C  0.87208978  0.18570356  0.59774620    -0.54400
C826        C  0.85840256  0.19896542  0.60617757     0.09600
C827        C  0.84605515  0.14798740  0.63913560    -0.54000
C828        C  0.83239883  0.16113444  0.64785989     0.10100
H829        H  0.80490825  0.11089358  0.57788540     0.14700
H830        H  0.81395169  0.18505392  0.62950206     0.00400
H831        H  0.89500795  0.19932932  0.58544757     0.15000
H832        H  0.85190045  0.13723827  0.65470928     0.14800
C833        C  0.62318805  0.37320488  0.10776260     0.86500
C834        C  0.65752719  0.39041543  0.09470087    -0.53700
C835        C  0.67134998  0.37750934  0.10374734     0.09500
C836        C  0.64953927  0.34847781  0.12522062     0.20400
C837        C  0.60249297  0.33658149  0.10018977    -0.54400
C838        C  0.61635927  0.32363273  0.10895720     0.09600
C839        C  0.62861283  0.37521421  0.14102838    -0.54000
C840        C  0.64239517  0.36240016  0.15023061     0.10100
H841        H  0.66984886  0.41107495  0.07967357     0.14700
H842        H  0.66093260  0.33830077  0.13292644     0.00400
H843        H  0.57953508  0.32253086  0.08787854     0.15000
H844        H  0.62278569  0.38626165  0.15632003     0.14800
C845        C  0.62059741  0.36713157  0.39675563     0.86500
C846        C  0.60190774  0.33069193  0.40275511    -0.53700
C847        C  0.61733336  0.32000244  0.39199810     0.09500
C848        C  0.64997865  0.34673792  0.37589858     0.20400
C849        C  0.65535715  0.38576718  0.40911016    -0.54400
C850        C  0.67070258  0.37502451  0.39827023     0.09600
C851        C  0.62542659  0.37070649  0.36346392    -0.54000
C852        C  0.64096557  0.36028038  0.35242014     0.10100
H853        H  0.57891420  0.31496511  0.41502460     0.14700
H854        H  0.66263659  0.33823866  0.36696997     0.00400
H855        H  0.66665814  0.40548024  0.42516639     0.15000
H856        H  0.61751244  0.38092097  0.34972929     0.14800
Zr857      Zr  0.51372553  0.48896570  0.97591898     2.17500
O858        O  0.52485402  0.47653714  0.92858605    -0.51300
O859        O  0.53333337  0.46794652  0.00676882    -0.74500
O860        O  0.57191464  0.02729562  0.96401688    -0.81300
O861        O  0.92391454  0.41013135  0.97310529    -0.83000
O862        O  0.59217695  0.07859178  0.97688770    -0.78600
O863        O  0.97597783  0.43133747  0.96124523    -0.90300
O864        O  0.52660111  0.47567076  0.05422149    -0.76200
O865        O  0.53876351  0.02568944  0.01667080    -0.85700
O866        O  0.97529262  0.46207945  0.01543671    -0.85400
O867        O  0.52458667  0.03742212  0.95947202    -0.72200
O868        O  0.96471633  0.47760282  0.95902382    -0.84300
Zr869      Zr  0.96166457  0.03682386  0.02293200     2.26400
Zr870      Zr  0.54869150  0.07399138  0.00090979     2.06300
Zr871      Zr  0.92664804  0.45154989  0.99921263     2.10000
Zr872      Zr  0.99940253  0.99839871  0.05545125     1.78800
O873        O  0.88079168  0.42444103  0.96480023    -0.93100
O874        O  0.54840167  0.03332586  0.08661970    -0.40900
O875        O  0.95169843  0.48886374  0.03989121    -0.77600
O876        O  0.51029322  0.04743578  0.04082859    -0.96200
O877        O  0.00055712  0.06416351  0.98398021    -0.89500
O878        O  0.93640639  0.99952164  0.98259058    -0.92400
C879        C  0.53565981  0.46588459  0.03452506     1.01400
C880        C  0.94445430  0.40787336  0.96193090     1.14300
C881        C  0.59516952  0.05869330  0.96560347     1.05100
O882        O  0.59531820  0.10360843  0.03466111    -0.94500
O883        O  0.55172149  0.11618310  0.02582371    -0.90300
O884        O  0.99918608  0.09493686  0.03555073    -0.83400
C885        C  0.53060897  0.11838472  0.03539036     1.11700
O886        O  0.98821273  0.01795125  0.89560044    -0.96500
Zr887      Zr  0.97554089  0.02690580  0.94384732     1.88900
O888        O  0.94300394  0.05860084  0.99195324    -0.73200
O889        O  0.57672309  0.12102551  0.96798129    -0.52400
O890        O  0.51569418  0.07886691  0.91795145    -0.97100
O891        O  0.92533942  0.49100031  0.91354602    -0.54300
O892        O  0.95139126  0.05248834  0.94453029    -0.73700
C893        C  0.94178094  0.06171039  0.96421584     0.98700
O894        O  0.94805530  0.04579528  0.07076504    -0.62500
O895        O  0.89678814  0.40421868  0.03201192    -0.57300
O896        O  0.90293663  0.99899613  0.03319746    -0.94000
O897        O  0.88349773  0.44694502  0.02469642    -0.92400
O898        O  0.96347407  0.44856147  0.08226135    -0.92800
O899        O  0.98759609  0.00680979  0.10433543    -0.91500
C900        C  0.88036314  0.46728298  0.03453478     1.17500
H901        H  0.97021180  0.44172248  0.02058508     0.33500
H902        H  0.51898496  0.06199451  0.05755325     0.44300
H903        H  0.91583384  0.49398818  0.97758960     0.37800
H904        H  0.53986905  0.04698155  0.94325203     0.34300
H905        H  0.54682390  0.01791389  0.10010870     0.26100
H906        H  0.60000157  0.13625200  0.97470272     0.32000
H907        H  0.00291840  0.08301029  0.90776040     0.37900
H908        H  0.97803179  0.44734582  0.09430140     0.32400
H909        H  0.87704041  0.38610890  0.02072849     0.31300
H910        H  0.86472212  0.40132627  0.97160856     0.33000
H911        H  0.90962924  0.99160299  0.92273806     0.31900
H912        H  0.97721111  0.01646924  0.10087869     0.35900
H913        H  0.93466206  0.02421051  0.08080515     0.28700
H914        H  0.54242978  0.47557442  0.93237435     0.32900
H915        H  0.98298867  0.02797424  0.88149056     0.35700
H916        H  0.91055056  0.39798238  0.03324058     0.28400
H917        H  0.96912481  0.05961801  0.08181218     0.41200
H918        H  0.58519966  0.09760667  0.05442241     0.31300
H919        H  0.56717912  0.04143499  0.07355558     0.38900
H920        H  0.91570397  0.46831233  0.91853447     0.30800
H921        H  0.57728994  0.11273264  0.94877952     0.30800
H922        H  0.53488289  0.99533540  0.91685145     0.31100
Zr923      Zr  0.96060025  0.03286799  0.47492138     2.17500
O924        O  0.94846525  0.04482491  0.42812439    -0.51300
O925        O  0.94054938  0.05361707  0.50554749    -0.74500
O926        O  0.90178706  0.99331671  0.46355572    -0.81300
O927        O  0.55119621  0.11182655  0.47088585    -0.83000
O928        O  0.88079654  0.44285628  0.47833507    -0.78600
O929        O  0.99843991  0.09021008  0.45979620    -0.90300
O930        O  0.94966794  0.04869985  0.55301929    -0.76200
O931        O  0.93543627  0.99596295  0.51536208    -0.85700
O932        O  0.99945214  0.06059023  0.51409607    -0.85400
O933        O  0.94859064  0.48418973  0.45847533    -0.72200
O934        O  0.50930580  0.04371965  0.45732816    -0.84300
Zr935      Zr  0.51180561  0.48515142  0.52138997     2.26400
Zr936      Zr  0.92527644  0.44877459  0.50051132     2.06300
Zr937      Zr  0.54783742  0.07027845  0.49716781     2.10000
Zr938      Zr  0.97444494  0.02367117  0.55429680     1.78800
O939        O  0.59358288  0.09816216  0.46251978    -0.93100
O940        O  0.92776120  0.49167787  0.58628746    -0.40900
O941        O  0.52349614  0.03402383  0.53857954    -0.77600
O942        O  0.96400934  0.47554601  0.54013209    -0.96200
O943        O  0.97237950  0.45738526  0.48290290    -0.89500
O944        O  0.53768195  0.02174432  0.48193001    -0.92400
C945        C  0.93945019  0.05713180  0.53322681     1.01400
C946        C  0.53044325  0.11371585  0.45975830     1.14300
C947        C  0.87773442  0.46267976  0.46740893     1.05100
O948        O  0.87722063  0.41925349  0.53248721    -0.94500
O949        O  0.92040971  0.40702525  0.52761261    -0.90300
O950        O  0.97266680  0.42696367  0.53563752    -0.83400
C951        C  0.94107146  0.40419216  0.53689552     1.11700
O952        O  0.99113544  0.00667968  0.39355077    -0.96500
Zr953      Zr  0.99691863  0.49381491  0.44224812     1.88900
O954        O  0.52876126  0.46152327  0.49062693    -0.73200
O955        O  0.89957756  0.40222477  0.46714124    -0.52400
O956        O  0.95650761  0.44230416  0.41578527    -0.97100
O957        O  0.55024670  0.03201229  0.41443776    -0.54300
O958        O  0.52008319  0.46740551  0.44326760    -0.73700
C959        C  0.52947929  0.45795775  0.46288406     0.98700
O960        O  0.52507053  0.47681939  0.56954186    -0.62500
O961        O  0.57753722  0.11767322  0.52999253    -0.57300
O962        O  0.57159325  0.02336784  0.53148577    -0.94000
O963        O  0.59168314  0.07501725  0.52066208    -0.92400
O964        O  0.51418084  0.07536510  0.58104285    -0.92800
O965        O  0.98482648  0.01481212  0.60358457    -0.91500
C966        C  0.59499018  0.05480465  0.53020564     1.17500
H967        H  0.00466694  0.08109192  0.51899744     0.33500
H968        H  0.95531009  0.46142519  0.55708597     0.44300
H969        H  0.55809642  0.02692456  0.47650029     0.37800
H970        H  0.93290817  0.47435345  0.44253086     0.34300
H971        H  0.92630815  0.00210723  0.59868419     0.25500
H972        H  0.87750935  0.38465650  0.47574340     0.32000
H973        H  0.96977070  0.43896301  0.40416871     0.37900
H974        H  0.03478108  0.08020540  0.57977026     0.32400
H975        H  0.59903731  0.13455407  0.52019208     0.31300
H976        H  0.61220098  0.11861467  0.47270609     0.33000
H977        H  0.56656136  0.03177934  0.42429957     0.31900
H978        H  0.00713451  0.51798058  0.59977319     0.35900
H979        H  0.54153427  0.99697657  0.57928335     0.28700
H980        H  0.93112647  0.04604455  0.43238726     0.32900
H981        H  0.99251717  0.49655926  0.37979102     0.35700
H982        H  0.56588977  0.12624580  0.52850062     0.28400
H983        H  0.00396854  0.46249595  0.58068517     0.41200
H984        H  0.88619695  0.43016950  0.55180517     0.31300
H985        H  0.90919190  0.48576342  0.57419029     0.38900
H986        H  0.55808717  0.05428291  0.41838890     0.30800
H987        H  0.89499523  0.40878048  0.44904259     0.30800
H988        H  0.93730770  0.02459249  0.41618390     0.31100
C989        C  0.80602166  0.44467542  0.44169103     0.29800
C990        C  0.78568964  0.45134273  0.43367837    -0.36500
C991        C  0.75425533  0.42442250  0.42335408     0.15800
C992        C  0.74359165  0.39311962  0.42065612     0.21600
C993        C  0.76383728  0.38635374  0.42895692    -0.34600
C994        C  0.79516901  0.41324261  0.43969571     0.15700
O995        O  0.83644573  0.46626639  0.45172598    -0.26600
C996        C  0.84504393  0.44835640  0.45652614     0.05500
C997        C  0.82031879  0.41517534  0.44961248    -0.31500
O998        O  0.71308263  0.37164925  0.41066225    -0.23400
C999        C  0.70409665  0.38944862  0.40738456    -0.03400
C1000       C  0.72871400  0.42240798  0.41487236    -0.17800
H1001       H  0.79373494  0.47576456  0.43554671     0.20200
H1002       H  0.75566096  0.36185753  0.42738660     0.18600
H1003       H  0.82105993  0.39553899  0.45117826     0.18500
H1004       H  0.72777541  0.44194767  0.41437903     0.14400
C1005       C  0.56114215  0.41830527  0.45291872     0.29800
C1006       C  0.57381261  0.40321669  0.46114026    -0.36500
C1007       C  0.58391084  0.39418608  0.43803167     0.15800
C1008       C  0.58173385  0.39978516  0.40899350     0.21600
C1009       C  0.56872396  0.41438375  0.40079683    -0.34600
C1010       C  0.55859881  0.42328435  0.42377516     0.15700
O1011       O  0.55116131  0.42971627  0.47073959    -0.26600
C1012       C  0.54202772  0.44195467  0.45265148     0.05500
C1013       C  0.54601048  0.43848869  0.42320871    -0.31500
O1014       O  0.59380170  0.39083435  0.39097929    -0.23400
C1015       C  0.60382256  0.37913799  0.40849969    -0.03400
C1016       C  0.59809558  0.38036644  0.43810147    -0.17800
H1017       H  0.57611946  0.39929380  0.48389439     0.20200
H1018       H  0.56713650  0.41899198  0.37806390     0.18600
H1019       H  0.54085661  0.44649696  0.40417140     0.18500
H1020       H  0.60428228  0.37294970  0.45681848     0.14400
C1021       C  0.57726243  0.19303574  0.42975550     0.29800
C1022       C  0.60594461  0.22437822  0.42077736    -0.36500
C1023       C  0.60126025  0.24563827  0.41025361     0.15800
C1024       C  0.57052964  0.23674043  0.40907530     0.21600
C1025       C  0.54188625  0.20528236  0.41744597    -0.34600
C1026       C  0.54652414  0.18399600  0.42766882     0.15700
O1027       O  0.57585242  0.16963062  0.44136450    -0.26600
C1028       C  0.54374749  0.14523595  0.44645278     0.05500
C1029       C  0.52437230  0.15280905  0.43825946    -0.31500
O1030       O  0.57206509  0.26132577  0.40141561    -0.23400
C1031       C  0.60411992  0.28623716  0.39716724    -0.03400
C1032       C  0.62351305  0.27788274  0.40198960    -0.17800
H1033       H  0.63024901  0.23194750  0.42259052     0.20200
H1034       H  0.51775523  0.19823661  0.41687806     0.18600
H1035       H  0.99757065  0.13773547  0.43971031     0.18500
H1036       H  0.65019689  0.29384640  0.40162243     0.14400
C1037       C  0.65361344  0.35319855  0.27811381     0.29800
C1038       C  0.65139336  0.33720542  0.25236068    -0.36500
C1039       C  0.65452545  0.35223328  0.22566403     0.15800
C1040       C  0.65965997  0.38100565  0.22472593     0.21600
C1041       C  0.66268760  0.39726501  0.25021691    -0.34600
C1042       C  0.65922794  0.38218576  0.27658498     0.15700
O1043       O  0.64784378  0.34199014  0.30531390    -0.26600
C1044       C  0.64962852  0.36411755  0.32102668     0.05500
C1045       C  0.65694429  0.38970467  0.30423131    -0.31500
O1046       O  0.65762544  0.38874048  0.19811464    -0.23400
C1047       C  0.65135415  0.36494140  0.18135915    -0.03400
C1048       C  0.64960992  0.34163524  0.19716308    -0.17800
H1049       H  0.64573685  0.31381758  0.25304983     0.20200
H1050       H  0.66543371  0.41911196  0.24949375     0.18600
H1051       H  0.65868996  0.41010654  0.31119779     0.18500
H1052       H  0.64286314  0.31890663  0.18920005     0.14400
C1053       C  0.57582370  0.19733231  0.06588085     0.29800
C1054       C  0.60352540  0.22736815  0.07793456    -0.36500
C1055       C  0.59891494  0.24921203  0.08664139     0.15800
C1056       C  0.56933311  0.24234703  0.08315078     0.21600
C1057       C  0.54151061  0.21216114  0.07137201    -0.34600
C1058       C  0.54594210  0.19004659  0.06318383     0.15700
O1059       O  0.57458140  0.17333227  0.05624308    -0.26600
C1060       C  0.54338261  0.15020892  0.04758294     0.05500
C1061       C  0.52439477  0.15920650  0.05149113    -0.31500
O1062       O  0.57116445  0.26712002  0.09127894    -0.23400
C1063       C  0.60221694  0.28999550  0.10051662    -0.03400
C1064       C  0.62049020  0.28002020  0.09835286    -0.17800
H1065       H  0.62706017  0.23334172  0.08026898     0.20200
H1066       H  0.51811628  0.20639710  0.06862263     0.18600
H1067       H  0.49856836  0.14515195  0.04622035     0.18500
H1068       H  0.64629855  0.29388109  0.10334535     0.14400
C1069       C  0.79984695  0.42008647  0.06301705     0.29800
C1070       C  0.76888630  0.39152655  0.07288937    -0.36500
C1071       C  0.74630986  0.39537701  0.08131471     0.15800
C1072       C  0.75357908  0.42520569  0.07986145     0.21600
C1073       C  0.78472168  0.45387186  0.07054053    -0.34600
C1074       C  0.80735324  0.45006173  0.06230688     0.15700
O1075       O  0.82433216  0.42198313  0.05329114    -0.26600
C1076       C  0.84796076  0.45366576  0.04650472     0.05500
C1077       C  0.83877708  0.47230135  0.05180413    -0.31500
O1078       O  0.72833140  0.42289907  0.08748940    -0.23400
C1079       C  0.70466785  0.39125717  0.09431702    -0.03400
C1080       C  0.71452508  0.37298718  0.09105612    -0.17800
H1081       H  0.76268072  0.36787397  0.07358965     0.20200
H1082       H  0.79072288  0.47741331  0.06938557     0.18600
H1083       H  0.85301693  0.49834694  0.04798383     0.18500
H1084       H  0.70014825  0.34689936  0.09451884     0.14400
C1085       C  0.56610717  0.43472463  0.07391971     0.29800
C1086       C  0.57531947  0.42758213  0.09911879    -0.36500
C1087       C  0.58755379  0.41144834  0.09451953     0.15800
C1088       C  0.59052218  0.40278586  0.06707660     0.21600
C1089       C  0.58135104  0.41002182  0.04173333    -0.34600
C1090       C  0.56917554  0.42633472  0.04631421     0.15700
O1091       O  0.55405981  0.44965796  0.07331462    -0.26600
C1092       C  0.54941870  0.45108977  0.04493251     0.05500
C1093       C  0.55841690  0.43697178  0.02703403    -0.31500
O1094       O  0.60293049  0.38811119  0.06808981    -0.23400
C1095       C  0.60810182  0.38744575  0.09660460    -0.03400
C1096       C  0.59878918  0.40166129  0.11398490    -0.17800
H1097       H  0.57320362  0.43426130  0.12083663     0.20200
H1098       H  0.58368344  0.40354465  0.02000539     0.18600
H1099       H  0.55705329  0.43474494  0.00336464     0.18500
H1100       H  0.60011381  0.40484819  0.13749783     0.14400
C1101       C  0.88393845  0.11965780  0.56529003     0.29800
C1102       C  0.89255134  0.11181320  0.53989180    -0.36500
C1103       C  0.90557062  0.09635810  0.54453907     0.15800
C1104       C  0.90993730  0.08941043  0.57224216     0.21600
C1105       C  0.90148998  0.09736576  0.59746308    -0.34600
C1106       C  0.88834796  0.11254295  0.59282749     0.15700
O1107       O  0.87074308  0.13351597  0.56630161    -0.26600
C1108       C  0.86652155  0.13516040  0.59487713     0.05500
C1109       C  0.87723846  0.12248339  0.61236200    -0.31500
O1110       O  0.92223582  0.07476176  0.57175488    -0.23400
C1111       C  0.92580799  0.07209594  0.54338355    -0.03400
C1112       C  0.91584810  0.08511909  0.52530238    -0.17800
H1113       H  0.88905935  0.11708431  0.51811877     0.20200
H1114       H  0.90466970  0.09180450  0.61922721     0.18600
H1115       H  0.87699432  0.12053724  0.63596021     0.18500
H1116       H  0.91621740  0.08618807  0.50157671     0.14400
C1117       C  0.87539170  0.27186133  0.58582863     0.29800
C1118       C  0.86766719  0.29144510  0.57805418    -0.36500
C1119       C  0.89399749  0.32306702  0.56751435     0.15800
C1120       C  0.92579761  0.33471710  0.56504376     0.21600
C1121       C  0.93348721  0.31510290  0.57266156    -0.34600
C1122       C  0.90711336  0.28340813  0.58297647     0.15700
O1123       O  0.85438832  0.24115244  0.59523033    -0.26600
C1124       C  0.87280118  0.23277293  0.59821645     0.05500
C1125       C  0.90587010  0.25819730  0.59096676    -0.31500
O1126       O  0.94653656  0.36484371  0.55438910    -0.23400
C1127       C  0.92777698  0.37255612  0.54974325    -0.03400
C1128       C  0.89482673  0.34749322  0.55749001    -0.17800
H1129       H  0.84277422  0.28246577  0.57968601     0.20200
H1130       H  0.95821326  0.32378812  0.57029807     0.18600
H1131       H  0.92596501  0.25799129  0.59104737     0.18500
H1132       H  0.87449043  0.34725960  0.55578157     0.14400
C1133       C  0.72261209  0.09779336  0.57358561     0.29800
C1134       C  0.69190234  0.06924131  0.56331896    -0.36500
C1135       C  0.66930045  0.07295296  0.55486352     0.15800
C1136       C  0.67661007  0.10283003  0.55586473     0.21600
C1137       C  0.70729393  0.13136966  0.56630320    -0.34600
C1138       C  0.72965783  0.12750935  0.57537117     0.15700
O1139       O  0.74738422  0.09993425  0.58251947    -0.26600
C1140       C  0.77045940  0.13131928  0.59058979     0.05500
C1141       C  0.76074462  0.14962406  0.58678289    -0.31500
O1142       O  0.65173565  0.10059309  0.54693017    -0.23400
C1143       C  0.62803276  0.06877784  0.54048156    -0.03400
C1144       C  0.63760645  0.05041914  0.54501088    -0.17800
H1145       H  0.68594721  0.04571265  0.56223283     0.20200
H1146       H  0.71318307  0.15485712  0.56756144     0.18600
H1147       H  0.77484755  0.17558473  0.59104101     0.18500
H1148       H  0.62323276  0.02426372  0.54163367     0.14400
C1149       C  0.81366332  0.14368616  0.72239577     0.29800
C1150       C  0.80728548  0.12607683  0.74795688    -0.36500
C1151       C  0.81224695  0.14204391  0.77436058     0.15800
C1152       C  0.82287682  0.17337743  0.77588242     0.21600
C1153       C  0.82846415  0.19081512  0.75003294    -0.34600
C1154       C  0.82335053  0.17466216  0.72332257     0.15700
O1155       O  0.81423812  0.13464554  0.69576392    -0.26600
C1156       C  0.82385873  0.15975350  0.67898112     0.05500
C1157       C  0.82955959  0.18533121  0.69480702    -0.31500
O1158       O  0.82981231  0.18485705  0.80317320    -0.23400
C1159       C  0.82342854  0.16037451  0.81900856    -0.03400
C1160       C  0.81203613  0.13312437  0.80212942    -0.17800
H1161       H  0.80072038  0.10224368  0.74732327     0.20200
H1162       H  0.83780487  0.21579588  0.75067897     0.18600
H1163       H  0.83942536  0.20921034  0.68680371     0.18500
H1164       H  0.80669176  0.11080097  0.80911921     0.14400
C1165       C  0.91274500  0.09434439  0.92517468     0.29800
C1166       C  0.90446059  0.10256036  0.90010302    -0.36500
C1167       C  0.89058274  0.11702376  0.90508312     0.15800
C1168       C  0.88536032  0.12328055  0.93274477     0.21600
C1169       C  0.89384855  0.11522449  0.95793877    -0.34600
C1170       C  0.90756884  0.10048577  0.95297427     0.15700
O1171       O  0.92544138  0.08004451  0.92550828    -0.26600
C1172       C  0.92845448  0.07688795  0.95389998     0.05500
C1173       C  0.91775131  0.08920033  0.97205791    -0.31500
O1174       O  0.87149522  0.13649384  0.93203914    -0.23400
C1175       C  0.86760908  0.13853693  0.90350296    -0.03400
C1176       C  0.87929762  0.12683560  0.88579993    -0.17800
H1177       H  0.90820524  0.09765108  0.87821303     0.20200
H1178       H  0.88970784  0.11976134  0.97982142     0.18600
H1179       H  0.91741311  0.08962226  0.99579177     0.18500
H1180       H  0.87966060  0.12545474  0.86218339     0.14400
C1181       C  0.92799905  0.33785502  0.93265643     0.29800
C1182       C  0.93515799  0.31800807  0.92401614    -0.36500
C1183       C  0.90824873  0.28627392  0.91410850     0.15800
C1184       C  0.87649994  0.27487194  0.91245268     0.21600
C1185       C  0.86932624  0.29471980  0.92112839    -0.34600
C1186       C  0.89618624  0.32634942  0.93138011     0.15700
O1187       O  0.94926981  0.36808257  0.94324787    -0.26600
C1188       C  0.93080240  0.37597552  0.94905674     0.05500
C1189       C  0.89757472  0.35091813  0.94215748    -0.31500
O1190       O  0.85495445  0.24397532  0.90345215    -0.23400
C1191       C  0.87311332  0.23540837  0.89954021    -0.03400
C1192       C  0.90647685  0.26082829  0.90575747    -0.17800
H1193       H  0.95987004  0.32649577  0.92543125     0.20200
H1194       H  0.84445205  0.28589661  0.92047912     0.18600
H1195       H  0.87740956  0.35084442  0.94477754     0.18500
H1196       H  0.92643186  0.26042725  0.90490187     0.14400
C1197       C  0.72969439  0.12869028  0.91796578     0.29800
C1198       C  0.70938523  0.13536804  0.92670479    -0.36500
C1199       C  0.67754820  0.10820156  0.93639808     0.15800
C1200       C  0.66616195  0.07652614  0.93678726     0.21600
C1201       C  0.68649368  0.06989428  0.92823106    -0.34600
C1202       C  0.71854552  0.09713838  0.91923796     0.15700
O1203       O  0.76075627  0.15047313  0.90916227    -0.26600
C1204       C  0.76973355  0.13266824  0.90529648     0.05500
C1205       C  0.74442832  0.09935438  0.91123702    -0.31500
O1206       O  0.63565149  0.05486033  0.94677421    -0.23400
C1207       C  0.62752116  0.07294903  0.95329619    -0.03400
C1208       C  0.65264146  0.10631010  0.94733707    -0.17800
H1209       H  0.71801965  0.16008695  0.92654729     0.20200
H1210       H  0.67813888  0.04530321  0.92912083     0.18600
H1211       H  0.74507788  0.07964014  0.90997903     0.18500
H1212       H  0.65251719  0.12621619  0.95063467     0.14400
C1213       C  0.85201227  0.65248355  0.89181413     0.86500
C1214       C  0.87212852  0.68880794  0.89973984    -0.53700
C1215       C  0.85821649  0.70169354  0.89081139     0.09500
C1216       C  0.82507983  0.67664646  0.87439495     0.20400
C1217       C  0.81763764  0.63477656  0.90466771    -0.54400
C1218       C  0.80333436  0.64718650  0.89559924     0.09600
C1219       C  0.84691071  0.65076305  0.85851960    -0.54000
C1220       C  0.83271563  0.66317050  0.84922702     0.10100
H1221       H  0.89500192  0.70271592  0.91212283     0.14700
H1222       H  0.81348080  0.68673214  0.86696768     0.00400
H1223       H  0.80574844  0.61418439  0.91970303     0.15000
H1224       H  0.85307149  0.63996052  0.84330320     0.14800
C1225       C  0.85070032  0.64927145  0.60491636     0.86500
C1226       C  0.81648397  0.63161825  0.59152227    -0.53700
C1227       C  0.80251073  0.64461418  0.59982369     0.09500
C1228       C  0.82398942  0.67398333  0.62123624     0.20400
C1229       C  0.87121429  0.68563076  0.59686814    -0.54400
C1230       C  0.85727478  0.69862764  0.60532587     0.09600
C1231       C  0.84512216  0.64781824  0.63811658    -0.54000
C1232       C  0.83119450  0.66068372  0.64672836     0.10100
H1233       H  0.80453887  0.61087220  0.57653338     0.14700
H1234       H  0.81263326  0.68443159  0.62836421     0.00400
H1235       H  0.89433174  0.69951213  0.58484498     0.15000
H1236       H  0.85114255  0.63731933  0.65380045     0.14800
C1237       C  0.62379121  0.87416060  0.10782744     0.86500
C1238       C  0.65815080  0.89176753  0.09473893    -0.53700
C1239       C  0.67214685  0.87900834  0.10353467     0.09500
C1240       C  0.65067818  0.84993291  0.12500755     0.20400
C1241       C  0.60340438  0.83761590  0.10011806    -0.54400
C1242       C  0.61753573  0.82492222  0.10881858     0.09600
C1243       C  0.62920967  0.87610985  0.14104748    -0.54000
C1244       C  0.64325762  0.86353572  0.15012191     0.10100
H1245       H  0.67022891  0.91235833  0.07965304     0.14700
H1246       H  0.66233828  0.83996045  0.13252554     0.00400
H1247       H  0.58039195  0.82340174  0.08787765     0.15000
H1248       H  0.62314742  0.88691114  0.15639626     0.14800
C1249       C  0.62073288  0.86656347  0.39645352     0.86500
C1250       C  0.60150063  0.82996947  0.40198250    -0.53700
C1251       C  0.61671256  0.81909211  0.39115868     0.09500
C1252       C  0.64962510  0.84576628  0.37534911     0.20400
C1253       C  0.65529703  0.88455965  0.40903327    -0.54400
C1254       C  0.67042692  0.87364693  0.39801784     0.09600
C1255       C  0.62589952  0.87062081  0.36321271    -0.54000
C1256       C  0.64130693  0.86007865  0.35207743     0.10100
H1257       H  0.57842512  0.81432611  0.41414624     0.14700
H1258       H  0.66206296  0.83708858  0.36627519     0.00400
H1259       H  0.66670954  0.90417489  0.42519841     0.15000
H1260       H  0.61839314  0.88131031  0.34962737     0.14800
Zr1261     Zr  0.51335259  0.98848945  0.97615638     2.17500
O1262       O  0.52380821  0.97528679  0.92893718    -0.51300
O1263       O  0.53353198  0.96808385  0.00696193    -0.74500
O1264       O  0.57268886  0.52895333  0.96452019    -0.81300
O1265       O  0.92262148  0.91122366  0.96905622    -0.83000
O1266       O  0.59245128  0.58054417  0.97534620    -0.78600
O1267       O  0.97481292  0.93078336  0.96133791    -0.90300
O1268       O  0.52501544  0.97400902  0.05439133    -0.76200
O1269       O  0.53952397  0.52672590  0.01600902    -0.85700
O1270       O  0.97411440  0.96098120  0.01536754    -0.85400
O1271       O  0.52405046  0.53747677  0.95933950    -0.72200
O1272       O  0.96442473  0.97768802  0.95878664    -0.84300
Zr1273     Zr  0.96201814  0.53724516  0.02304996     2.26400
Zr1274     Zr  0.54868802  0.57472149  0.00036824     2.06300
Zr1275     Zr  0.92601749  0.95119355  0.99870107     2.10000
Zr1276     Zr  0.00097195  0.49987410  0.05513237     1.78800
O1277       O  0.87711184  0.92000078  0.96757710    -0.93100
O1278       O  0.54989598  0.53643667  0.08576867    -0.40900
O1279       O  0.95055946  0.98805711  0.03973788    -0.77600
O1280       O  0.51081239  0.54845161  0.04062830    -0.96200
O1281       O  0.00018666  0.56406493  0.98355719    -0.89500
O1282       O  0.93639668  0.49948825  0.98303642    -0.92400
C1283       C  0.53503750  0.96521705  0.03469111     1.01400
C1284       C  0.94324867  0.90830900  0.95960076     1.14300
C1285       C  0.59569812  0.56048216  0.96508586     1.05100
O1286       O  0.59389309  0.60318447  0.03564247    -0.94500
O1287       O  0.55160541  0.61699740  0.02512533    -0.90300
O1288       O  0.99927194  0.59562747  0.03502011    -0.83400
C1289       C  0.53063203  0.61926899  0.03503231     1.11700
O1290       O  0.98562958  0.51535963  0.89553327    -0.96500
Zr1291     Zr  0.97488369  0.52629472  0.94380980     1.88900
O1292       O  0.94243082  0.55826374  0.99224037    -0.73200
O1293       O  0.57717986  0.62205683  0.96775183    -0.52400
O1294       O  0.51547780  0.57767962  0.91747535    -0.97100
O1295       O  0.92679342  0.99291646  0.91249113    -0.54300
O1296       O  0.95109582  0.55240389  0.94481959    -0.73700
C1297       C  0.94138502  0.56157480  0.96450830     0.98700
O1298       O  0.95009442  0.54768189  0.07103104    -0.62500
O1299       O  0.90107476  0.90541368  0.03275862    -0.57300
O1300       O  0.90347284  0.49875693  0.03470109    -0.94000
O1301       O  0.88284852  0.94713780  0.02327840    -0.92400
O1302       O  0.96064091  0.94713685  0.08239594    -0.92800
O1303       O  0.98790529  0.50776479  0.10357395    -0.91500
C1304       C  0.87975125  0.96757067  0.03283226     1.17500
H1305       H  0.96882218  0.94048161  0.02033473     0.33500
H1306       H  0.51974503  0.56315942  0.05725906     0.44300
H1307       H  0.91597757  0.99420699  0.97696070     0.37800
H1308       H  0.53908707  0.54696962  0.94293591     0.34300
H1309       H  0.54899806  0.52169443  0.09962843     0.26100
H1310       H  0.60081109  0.63610381  0.97318559     0.32000
H1311       H  0.00445520  0.58672358  0.91366720     0.37900
H1312       H  0.97467108  0.94449993  0.09349620     0.32400
H1313       H  0.87694407  0.89182473  0.03019008     0.31300
H1314       H  0.86114283  0.89843756  0.97747179     0.33000
H1315       H  0.90964402  0.49301446  0.92193548     0.31900
H1316       H  0.97562168  0.51534806  0.09967394     0.35900
H1317       H  0.93702384  0.52638737  0.08152445     0.28700
H1318       H  0.54100898  0.97378484  0.93272778     0.32900
H1319       H  0.98252549  0.52716739  0.88147539     0.35700
H1320       H  0.90575883  0.89177846  0.02442112     0.28400
H1321       H  0.97150343  0.56180010  0.08155638     0.41200
H1322       H  0.60518747  0.59444522  0.03217552     0.31300
H1323       H  0.56865921  0.54468737  0.07262761     0.38900
H1324       H  0.91912769  0.97046071  0.91420196     0.30800
H1325       H  0.57572089  0.61332945  0.94806945     0.30800
H1326       H  0.53561053  0.49660548  0.91661086     0.31100
Zr1327     Zr  0.96034891  0.53343736  0.47515109     2.17500
O1328       O  0.94741705  0.54691676  0.42975806    -0.51300
O1329       O  0.94235975  0.55576344  0.50641323    -0.74500
O1330       O  0.90117790  0.49397022  0.46499427    -0.81300
O1331       O  0.55182496  0.61135666  0.46818093    -0.83000
O1332       O  0.88225273  0.94196755  0.47458835    -0.78600
O1333       O  0.99919325  0.59003416  0.45834149    -0.90300
O1334       O  0.95245529  0.55159952  0.55376431    -0.76200
O1335       O  0.93583512  0.49747689  0.51624206    -0.85700
O1336       O  0.00026724  0.56142644  0.51344243    -0.85400
O1337       O  0.95045192  0.98451125  0.45785712    -0.72200
O1338       O  0.50843309  0.54354712  0.45676359    -0.84300
Zr1339     Zr  0.51221242  0.98481237  0.52247727     2.26400
Zr1340     Zr  0.92619046  0.94805202  0.49911846     2.06300
Zr1341     Zr  0.54783073  0.57035277  0.49584638     2.10000
Zr1342     Zr  0.97592917  0.52534217  0.55429385     1.78800
O1343       O  0.59308633  0.59690120  0.46078508    -0.93100
O1344       O  0.92453123  0.98744753  0.58390324    -0.40900
O1345       O  0.52410195  0.53479184  0.53760226    -0.77600
O1346       O  0.96389409  0.97463606  0.53968099    -0.96200
O1347       O  0.97434899  0.95798127  0.48260727    -0.89500
O1348       O  0.53660458  0.52143694  0.48047420    -0.92400
C1349       C  0.94210621  0.55997241  0.53408144     1.01400
C1350       C  0.53089604  0.61324999  0.45767671     1.14300
C1351       C  0.87888858  0.96183393  0.46424749     1.05100
O1352       O  0.87701999  0.91627816  0.52986598    -0.94500
O1353       O  0.92196222  0.90656131  0.52607242    -0.90300
O1354       O  0.97414631  0.92732960  0.53631927    -0.83400
C1355       C  0.94258961  0.90419742  0.53653870     1.11700
O1356       O  0.98608875  0.50520235  0.39436738    -0.96500
Zr1357     Zr  0.99968841  0.99535051  0.44260022     1.88900
O1358       O  0.52942222  0.96102173  0.49232538    -0.73200
O1359       O  0.90280016  0.90229242  0.46529866    -0.52400
O1360       O  0.96206120  0.94520015  0.41357727    -0.97100
O1361       O  0.54722516  0.52865065  0.41208881    -0.54300
O1362       O  0.52266711  0.96856225  0.44489084    -0.73700
C1363       C  0.53134247  0.95848798  0.46459532     0.98700
O1364       O  0.52485148  0.97494746  0.57028745    -0.62500
O1365       O  0.57832201  0.61824360  0.52814329    -0.57300
O1366       O  0.57098564  0.52293907  0.53029186    -0.94000
O1367       O  0.59115070  0.57462663  0.51953116    -0.92400
O1368       O  0.51511613  0.57695484  0.58111344    -0.92800
O1369       O  0.98678487  0.51470491  0.60244513    -0.91500
C1370       C  0.59432400  0.55436384  0.52913309     1.17500
H1371       H  0.00594754  0.58219420  0.51810941     0.33500
H1372       H  0.95490580  0.96021810  0.55643965     0.44300
H1373       H  0.55679914  0.52633056  0.47469873     0.37800
H1374       H  0.93529801  0.97485730  0.44151022     0.34300
H1375       H  0.93129035  0.50722374  0.60114511     0.25500
H1376       H  0.88084111  0.88396579  0.47363429     0.32000
H1377       H  0.97636564  0.94215338  0.40360188     0.37900
H1378       H  0.03781322  0.58236879  0.57695444     0.32400
H1379       H  0.59785001  0.63609776  0.51654755     0.31300
H1380       H  0.61073373  0.61910892  0.46906759     0.33000
H1381       H  0.56337955  0.52807834  0.42179899     0.31900
H1382       H  0.00226703  0.01342692  0.60099118     0.35900
H1383       H  0.53890244  0.49873166  0.57912662     0.28700
H1384       H  0.93158722  0.54983711  0.43543633     0.32900
H1385       H  0.99851403  0.99831899  0.37975763     0.35700
H1386       H  0.56463851  0.62456369  0.52953359     0.28400
H1387       H  0.00446001  0.96589137  0.58236384     0.41200
H1388       H  0.87574755  0.93264418  0.53769104     0.31300
H1389       H  0.90642599  0.98110423  0.57080973     0.38900
H1390       H  0.55606462  0.55140359  0.41534131     0.30800
H1391       H  0.89788769  0.90853553  0.44719814     0.30800
H1392       H  0.93436549  0.52651531  0.41780380     0.31100
C1393       C  0.80709723  0.94376124  0.43819874     0.29800
C1394       C  0.78601833  0.95001072  0.43208307    -0.36500
C1395       C  0.75456900  0.92318238  0.42169631     0.15800
C1396       C  0.74456472  0.89236231  0.41708014     0.21600
C1397       C  0.76565270  0.88604178  0.42329112    -0.34600
C1398       C  0.79701593  0.91282059  0.43420001     0.15700
O1399       O  0.83725905  0.96512528  0.44889291    -0.26600
C1400       C  0.84653220  0.94759002  0.45217778     0.05500
C1401       C  0.82252231  0.91488379  0.44338286    -0.31500
O1402       O  0.71381116  0.87083805  0.40758361    -0.23400
C1403       C  0.70403099  0.88811512  0.40657690    -0.03400
C1404       C  0.72838059  0.92079155  0.41503993    -0.17800
H1405       H  0.79340971  0.97398090  0.43569578     0.20200
H1406       H  0.75795559  0.86185872  0.42035036     0.18600
H1407       H  0.82371378  0.89551274  0.44380120     0.18500
H1408       H  0.72693987  0.93997071  0.41621072     0.14400
C1409       C  0.56410111  0.91986905  0.45418351     0.29800
C1410       C  0.57592015  0.90385592  0.46198354    -0.36500
C1411       C  0.58584398  0.89493040  0.43858880     0.15800
C1412       C  0.58442498  0.90159399  0.40970901     0.21600
C1413       C  0.57267990  0.91748274  0.40197196    -0.34600
C1414       C  0.56261011  0.92614698  0.42518862     0.15700
O1415       O  0.55330087  0.93035112  0.47220989    -0.26600
C1416       C  0.54473098  0.94328689  0.45434091     0.05500
C1417       C  0.55003857  0.94133043  0.42491129    -0.31500
O1418       O  0.59567922  0.89206176  0.39135549    -0.23400
C1419       C  0.60450518  0.87900406  0.40850127    -0.03400
C1420       C  0.59873636  0.87985153  0.43817487    -0.17800
H1421       H  0.57731133  0.89876939  0.48459794     0.20200
H1422       H  0.57155828  0.92280530  0.37936634     0.18600
H1423       H  0.54534880  0.94993284  0.40602638     0.18500
H1424       H  0.60411790  0.87139580  0.45663815     0.14400
C1425       C  0.57692692  0.69186633  0.42699254     0.29800
C1426       C  0.60537880  0.72310585  0.41771086    -0.36500
C1427       C  0.60057956  0.74463469  0.40852992     0.15800
C1428       C  0.56997624  0.73607384  0.40879901     0.21600
C1429       C  0.54155353  0.70478302  0.41766519    -0.34600
C1430       C  0.54630294  0.68324424  0.42657956     0.15700
O1431       O  0.57571644  0.66830082  0.43771239    -0.26600
C1432       C  0.54386160  0.64431264  0.44394410     0.05500
C1433       C  0.52443281  0.65220675  0.43735683    -0.31500
O1434       O  0.57148098  0.76075048  0.40171503    -0.23400
C1435       C  0.60337556  0.78536004  0.39644463    -0.03400
C1436       C  0.62269183  0.77676773  0.40011737    -0.17800
H1437       H  0.62961210  0.73038253  0.41829154     0.20200
H1438       H  0.51754562  0.69801036  0.41833487     0.18600
H1439       H  0.99783680  0.63743013  0.44061658     0.18500
H1440       H  0.64930595  0.79245344  0.39872552     0.14400
C1441       C  0.65490439  0.85409258  0.27787994     0.29800
C1442       C  0.65268782  0.83822695  0.25204328    -0.36500
C1443       C  0.65524887  0.85307673  0.22545014     0.15800
C1444       C  0.65975102  0.88150798  0.22469538     0.21600
C1445       C  0.66274111  0.89763816  0.25025368    -0.34600
C1446       C  0.66000035  0.88281489  0.27652575     0.15700
O1447       O  0.64930619  0.84280078  0.30501354    -0.26600
C1448       C  0.65064123  0.86457864  0.32084792     0.05500
C1449       C  0.65770760  0.89015262  0.30423204    -0.31500
O1450       O  0.65758130  0.88924801  0.19815968    -0.23400
C1451       C  0.65192325  0.86583594  0.18126448    -0.03400
C1452       C  0.65060546  0.84271359  0.19690173    -0.17800
H1453       H  0.64748668  0.81506215  0.25261753     0.20200
H1454       H  0.66502173  0.91921923  0.24966992     0.18600
H1455       H  0.65898278  0.91024251  0.31129729     0.18500
H1456       H  0.64448141  0.82031706  0.18877845     0.14400
C1457       C  0.57652444  0.69852242  0.06539652     0.29800
C1458       C  0.60464332  0.72891066  0.07661133    -0.36500
C1459       C  0.60006361  0.75055280  0.08623165     0.15800
C1460       C  0.57006859  0.74311461  0.08445055     0.21600
C1461       C  0.54184451  0.71255817  0.07362388    -0.34600
C1462       C  0.54630251  0.69071439  0.06440062     0.15700
O1463       O  0.57520438  0.67470711  0.05494745    -0.26600
C1464       C  0.54363660  0.65118328  0.04741835     0.05500
C1465       C  0.52449500  0.65976554  0.05292161    -0.31500
O1466       O  0.57192809  0.76781718  0.09292386    -0.23400
C1467       C  0.60344096  0.79124799  0.10066699    -0.03400
C1468       C  0.62198597  0.78169249  0.09723987    -0.17800
H1469       H  0.62848572  0.73534949  0.07753911     0.20200
H1470       H  0.51815573  0.70639351  0.07217246     0.18600
H1471       H  0.49837196  0.64536442  0.04883227     0.18500
H1472       H  0.64809253  0.79598988  0.10097146     0.14400
C1473       C  0.79881417  0.92037444  0.05958830     0.29800
C1474       C  0.76749913  0.89168500  0.06849518    -0.36500
C1475       C  0.74557830  0.89592562  0.07813688     0.15800
C1476       C  0.75372447  0.92621223  0.07860187     0.21600
C1477       C  0.78516255  0.95495250  0.07007654    -0.34600
C1478       C  0.80718742  0.95076101  0.06072066     0.15700
O1479       O  0.82304518  0.92211386  0.04949946    -0.26600
C1480       C  0.84732169  0.95406483  0.04429671     0.05500
C1481       C  0.83887537  0.97307222  0.05098369    -0.31500
O1482       O  0.72908151  0.92431351  0.08752499    -0.23400
C1483       C  0.70501658  0.89247508  0.09329982    -0.03400
C1484       C  0.71390258  0.87365250  0.08796670    -0.17800
H1485       H  0.76066906  0.86773655  0.06785204     0.20200
H1486       H  0.79190974  0.97886761  0.07054910     0.18600
H1487       H  0.85383281  0.99944061  0.04873925     0.18500
H1488       H  0.69904583  0.84736850  0.09028629     0.14400
C1489       C  0.56531622  0.93404560  0.07407509     0.29800
C1490       C  0.57393157  0.92639733  0.09932092    -0.36500
C1491       C  0.58692318  0.91101938  0.09469606     0.15800
C1492       C  0.59111222  0.90351119  0.06718332     0.21600
C1493       C  0.58245060  0.91116424  0.04179993    -0.34600
C1494       C  0.56953319  0.92673903  0.04641164     0.15700
O1495       O  0.55280699  0.94850603  0.07348032    -0.26600
C1496       C  0.54898801  0.95067260  0.04506528     0.05500
C1497       C  0.55900075  0.93754721  0.02710830    -0.31500
O1498       O  0.60411422  0.88945121  0.06818479    -0.23400
C1499       C  0.60843821  0.88804477  0.09674683    -0.03400
C1500       C  0.59796860  0.90110930  0.11420496    -0.17800
H1501       H  0.57086883  0.93219802  0.12108086     0.20200
H1502       H  0.58572410  0.90555933  0.02003794     0.18600
H1503       H  0.55842141  0.93605601  0.00339780     0.18500
H1504       H  0.59836024  0.90340379  0.13778276     0.14400
C1505       C  0.88495110  0.62092340  0.56521460     0.29800
C1506       C  0.89432028  0.61359378  0.54006720    -0.36500
C1507       C  0.90815872  0.59902604  0.54507777     0.15800
C1508       C  0.91268015  0.59244501  0.57289239     0.21600
C1509       C  0.90341054  0.59983569  0.59791940    -0.34600
C1510       C  0.88935205  0.61407501  0.59289346     0.15700
O1511       O  0.87104388  0.63407168  0.56582041    -0.26600
C1512       C  0.86629672  0.63549747  0.59428303     0.05500
C1513       C  0.87735389  0.62334329  0.61209495    -0.31500
O1514       O  0.92542634  0.57821339  0.57261742    -0.23400
C1515       C  0.92903174  0.57544321  0.54426492    -0.03400
C1516       C  0.91875896  0.58802640  0.52603245    -0.17800
H1517       H  0.89070562  0.61851339  0.51818347     0.20200
H1518       H  0.90654315  0.59444714  0.61978989     0.18600
H1519       H  0.87693589  0.62144712  0.63570407     0.18500
H1520       H  0.91878794  0.58863440  0.50229522     0.14400
C1521       C  0.87540454  0.77235090  0.58679975     0.29800
C1522       C  0.86818973  0.79223837  0.57868339    -0.36500
C1523       C  0.89494094  0.82376781  0.56837984     0.15800
C1524       C  0.92670163  0.83517091  0.56663195     0.21600
C1525       C  0.93394992  0.81538676  0.57492290    -0.34600
C1526       C  0.90712389  0.78370567  0.58478941     0.15700
O1527       O  0.85384899  0.74131384  0.59518550    -0.26600
C1528       C  0.87197998  0.73263487  0.59832209     0.05500
C1529       C  0.90532648  0.75810585  0.59229224    -0.31500
O1530       O  0.94773398  0.86505295  0.55553459    -0.23400
C1531       C  0.92915013  0.87277907  0.54988680    -0.03400
C1532       C  0.89610716  0.84805255  0.55744047    -0.17800
H1533       H  0.84331102  0.78339785  0.57947797     0.20200
H1534       H  0.95858221  0.82375032  0.57297978     0.18600
H1535       H  0.92522962  0.75761945  0.59261791     0.18500
H1536       H  0.87589292  0.84790875  0.55494106     0.14400
C1537       C  0.72212895  0.59785315  0.57162386     0.29800
C1538       C  0.69172870  0.56948038  0.56078599    -0.36500
C1539       C  0.66871384  0.57288992  0.55333216     0.15800
C1540       C  0.67529600  0.60233544  0.55587663     0.21600
C1541       C  0.70565989  0.63071269  0.56695619    -0.34600
C1542       C  0.72851920  0.62714282  0.57489752     0.15700
O1543       O  0.74715108  0.60013467  0.57986915    -0.26600
C1544       C  0.76977405  0.63116976  0.58896565     0.05500
C1545       C  0.75952392  0.64914366  0.58646421    -0.31500
O1546       O  0.65019206  0.59987826  0.54739211    -0.23400
C1547       C  0.62715855  0.56836160  0.53968062    -0.03400
C1548       C  0.63729301  0.55039023  0.54296973    -0.17800
H1549       H  0.68632692  0.54629600  0.55848321     0.20200
H1550       H  0.71099145  0.65385299  0.56939494     0.18600
H1551       H  0.77314070  0.67479134  0.59181798     0.18500
H1552       H  0.62352895  0.52456088  0.53830256     0.14400
C1553       C  0.81302389  0.64348743  0.72127674     0.29800
C1554       C  0.80661183  0.62581952  0.74683096    -0.36500
C1555       C  0.81226889  0.64204563  0.77328131     0.15800
C1556       C  0.82361294  0.67366152  0.77481129     0.21600
C1557       C  0.82952610  0.69125978  0.74900130    -0.34600
C1558       C  0.82364947  0.67485147  0.72228418     0.15700
O1559       O  0.81275354  0.63410353  0.69453871    -0.26600
C1560       C  0.82280067  0.65941637  0.67782993     0.05500
C1561       C  0.82966760  0.68547671  0.69378180    -0.31500
O1562       O  0.83052672  0.68508920  0.80210760    -0.23400
C1563       C  0.82343442  0.66031598  0.81799489    -0.03400
C1564       C  0.81167880  0.63293733  0.80110613    -0.17800
H1565       H  0.79929790  0.60165016  0.74613539     0.20200
H1566       H  0.83944767  0.71644850  0.74967255     0.18600
H1567       H  0.84019394  0.70958883  0.68584214     0.18500
H1568       H  0.80568085  0.61031989  0.80816745     0.14400
C1569       C  0.91343434  0.59535732  0.92537522     0.29800
C1570       C  0.90564276  0.60396170  0.90020276    -0.36500
C1571       C  0.89086383  0.61757493  0.90495227     0.15800
C1572       C  0.88455720  0.62291007  0.93252999     0.21600
C1573       C  0.89249127  0.61440682  0.95785428    -0.34600
C1574       C  0.90695350  0.60033105  0.95309933     0.15700
O1575       O  0.92642619  0.58132842  0.92581400    -0.26600
C1576       C  0.92827204  0.57705253  0.95419470     0.05500
C1577       C  0.91654905  0.58847047  0.97226077    -0.31500
O1578       O  0.87043100  0.63587789  0.93160161    -0.23400
C1579       C  0.86743081  0.63866106  0.90299838    -0.03400
C1580       C  0.87983111  0.62754784  0.88548509    -0.17800
H1581       H  0.91033987  0.59986791  0.87837170     0.20200
H1582       H  0.88737104  0.61809878  0.97966628     0.18600
H1583       H  0.91502565  0.58780082  0.99596717     0.18500
H1584       H  0.88101481  0.62689270  0.86186847     0.14400
C1585       C  0.92714312  0.83818650  0.93150604     0.29800
C1586       C  0.93405417  0.81770571  0.92489226    -0.36500
C1587       C  0.90768206  0.78650956  0.91357810     0.15800
C1588       C  0.87664342  0.77611603  0.90883915     0.21600
C1589       C  0.86975986  0.79670827  0.91536956    -0.34600
C1590       C  0.89608523  0.82785433  0.92697105     0.15700
O1591       O  0.94789387  0.86793150  0.94310437    -0.26600
C1592       C  0.92988164  0.87676059  0.94622617     0.05500
C1593       C  0.89743610  0.85278676  0.93659174    -0.31500
O1594       O  0.85533422  0.74535657  0.89929688    -0.23400
C1595       C  0.87294794  0.73588559  0.89807454    -0.03400
C1596       C  0.90574152  0.76066722  0.90656776    -0.17800
H1597       H  0.95812948  0.82529697  0.92888282     0.20200
H1598       H  0.84541057  0.78873989  0.91226185     0.18600
H1599       H  0.87771279  0.85355221  0.93689535     0.18500
H1600       H  0.92524054  0.75965130  0.90808913     0.14400
C1601       C  0.72931174  0.62858772  0.91608857     0.29800
C1602       C  0.70841804  0.63511576  0.92263641    -0.36500
C1603       C  0.67729846  0.60870235  0.93419749     0.15800
C1604       C  0.66717972  0.57781536  0.93847154     0.21600
C1605       C  0.68807846  0.57131722  0.93202598    -0.34600
C1606       C  0.71937041  0.59787216  0.92100048     0.15700
O1607       O  0.75984552  0.64990059  0.90597523    -0.26600
C1608       C  0.76970887  0.63269592  0.90479700     0.05500
C1609       C  0.74546370  0.60015380  0.91383436    -0.31500
O1610       O  0.63717027  0.55677924  0.94961520    -0.23400
C1611       C  0.62804743  0.57448886  0.95291281    -0.03400
C1612       C  0.65205569  0.60700400  0.94372138    -0.17800
H1613       H  0.71610665  0.65924375  0.91943736     0.20200
H1614       H  0.68066960  0.54738427  0.93582419     0.18600
H1615       H  0.74685830  0.58095256  0.91506329     0.18500
H1616       H  0.65098987  0.62646543  0.94397229     0.14400
loop_ 
_geom_bond_atom_site_label_1 
_geom_bond_atom_site_label_2 
_geom_bond_distance 
_geom_bond_site_symmetry_2 
_ccdc_geom_bond_type 
C1            C2   1.528       .  S
C1            C7   1.534       .  S
C1            C5   1.533       .  S
C1          C367   1.513       .  S
C2            H9   1.086       .  S
C2            C3   1.367       .  D
C3            C4   1.544       .  S
C3          C383   1.477       .  S
C4            C8   1.542       .  S
C4            C6   1.543       .  S
C4           H10   1.111       .  S
C5           H11   1.086       .  S
C5            C6   1.368       .  D
C6          C396   1.480       .  S
C7           H12   1.082       .  S
C7            C8   1.365       .  D
C8          C351   1.482       .  S
C13          C14   1.534       .  S
C13          C19   1.535       .  S
C13          C17   1.533       .  S
C13         C300   1.512       .  S
C14          H21   1.086       .  S
C14          C15   1.366       .  D
C15          C16   1.543       .  S
C15         C332   1.478       .  S
C16          C20   1.544       .  S
C16          C18   1.540       .  S
C16          H22   1.110       .  S
C17          H23   1.086       .  S
C17          C18   1.367       .  D
C18         C316   1.478       .  S
C19          H24   1.084       .  S
C19          C20   1.364       .  D
C20         C348   1.477       .  S
C25          C26   1.537       .  S
C25          C31   1.533       .  S
C25          C29   1.535       .  S
C25         C287   1.519       .  S
C26          H33   1.086       .  S
C26          C27   1.368       .  D
C27          C28   1.539       .  S
C27         C271   1.478       .  S
C28          C32   1.538       .  S
C28          C30   1.540       .  S
C28          H34   1.109       .  S
C29          H35   1.086       .  S
C29          C30   1.368       .  D
C30         C255   1.477       .  S
C31          H36   1.083       .  S
C31          C32   1.363       .  D
C32         C239   1.473       .  S
C37          C38   1.530       .  S
C37          C43   1.529       .  S
C37          C41   1.530       .  S
C37         C207   1.501       .  S
C38          H45   1.086       .  S
C38          C39   1.365       .  D
C39          C40   1.540       .  S
C39         C223   1.472       .  S
C40          C44   1.541       .  S
C40          C42   1.538       .  S
C40          H46   1.111       .  S
C41          H47   1.086       .  S
C41          C42   1.365       .  D
C42         C191   1.467       .  S
C43          H48   1.086       .  S
C43          C44   1.365       .  D
C44         C236   1.476       .  S
Zr49         O50   2.439       .  S
Zr49         O51   2.431   1_556  S
Zr49        O456   2.445       .  S
Zr49        O863   2.435   1_455  S
Zr49        O461   2.381   1_556  S
Zr49        O866   2.382   1_456  S
Zr49        O463   2.403       .  S
Zr49        O868   2.405   1_455  S
O50         H106   0.990       .  S
O50         H518   0.990       .  S
O51          C71   1.283       .  A
O52        Zr453   2.435   1_545  S
O52          C73   1.284       .  A
O53         Zr63   2.437       .  S
O53          C72   1.286       .  A
O54         Zr62   2.435   1_556  S
O54          C73   1.285       .  A
O55        Zr857   2.437       .  S
O55          C72   1.286       .  A
O56       Zr1276   2.429       .  S
O56          C71   1.283       .  A
O57         Zr62   2.394       .  S
O57        Zr453   2.384   1_544  S
O57        Zr872   2.376   1_445  S
O58         Zr63   2.392   1_554  S
O58        Zr857   2.382   1_554  S
O58        Zr468   2.372       .  S
O58          H93   0.967       .  S
O59         Zr62   2.400   1_556  S
O59        Zr453   2.404   1_545  S
O59        Zr887   2.392   1_455  S
O59          H96   0.964       .  S
O60         Zr63   2.392       .  S
O60        Zr857   2.404       .  S
O60        Zr483   2.396       .  S
Zr61         O86   2.439       .  S
Zr61         O80   2.430   1_554  S
Zr61         O88   2.422   1_545  S
Zr61         O76   2.426       .  S
Zr61         O69   2.375   1_554  S
Zr61         O70   2.380   1_544  S
Zr61        O471   2.402   1_545  S
Zr61        O876   2.404       .  S
Zr62         O81   2.437   1_554  S
Zr62         O74   2.435       .  S
Zr62         O75   2.439       .  S
Zr62         O68   2.397       .  S
Zr62        O877   2.388   1_554  S
Zr63         O65   2.434       .  S
Zr63         O87   2.438   1_556  S
Zr63         O89   2.447   1_556  S
Zr63         O67   2.392   1_556  S
Zr63        O474   2.386       .  S
Zr64         O91   2.435   1_565  S
Zr64        O494   2.436       .  S
Zr64        O874   2.438   1_565  S
Zr64       O1268   2.425       .  S
Zr64        O865   2.376   1_565  S
Zr64        O462   2.372       .  S
Zr64        O471   2.400       .  S
Zr64        O876   2.398   1_565  S
O65         H102   0.990       .  S
O66        Zr872   2.438   1_445  S
O66          H97   0.990       .  S
O66         H111   0.990       .  S
O67        Zr465   2.402       .  S
O67        Zr468   2.397       .  S
O68        Zr869   2.405   1_455  S
O68        Zr872   2.397   1_445  S
O68          H94   0.964       .  S
O69         Zr79   2.371       .  S
O69        Zr870   2.386   1_556  S
O70         Zr79   2.375   1_565  S
O70        Zr467   2.387       .  S
O70         H499   0.967       .  S
C71         C284   1.472       .  S
C72         C380   1.473       .  S
C73         C399   1.472       .  S
O74         H110   0.990       .  S
O75          C77   1.285       .  A
O76         C885   1.284       .  A
C77         O884   1.284   1_455  A
C77         C252   1.470       .  S
O78         Zr79   2.438       .  S
O78         H107   0.990       .  S
Zr79        O890   2.437       .  S
Zr79        O487   2.437   1_545  S
Zr79         O84   2.427       .  S
Zr79        O867   2.392       .  S
Zr79        O464   2.397   1_545  S
O80          C85   1.284       .  A
O81          H98   0.990       .  S
O81         H113   0.990       .  S
O82        Zr887   2.436   1_455  S
O82         H907   0.990       .  S
O83        Zr483   2.438       .  S
O83         H112   0.990       .  S
O83         H507   0.990       .  S
O84          C85   1.282       .  A
C85         C364   1.470       .  S
O86         H105   0.990       .  S
O86         H109   0.990       .  S
O87         H101   0.990       .  S
O87         H108   0.990       .  S
O88         C496   1.283       .  A
O89          C92   1.287       .  A
O90        Zr468   2.434       .  S
O90         H100   0.990       .  S
O91         H104   0.990       .  S
C92         O492   1.285       .  A
C92         C268   1.475       .  S
H95         O474   0.967       .  S
H99         O890   0.990       .  S
H103        O487   0.990       .  S
H114        O454   0.990       .  S
Zr115       O116   2.440       .  S
Zr115       O117   2.431       .  S
Zr115       O118   2.438   1_545  S
Zr115       O121   2.429       .  S
Zr115       O123   2.378   1_545  S
Zr115       O124   2.383       .  S
Zr115       O529   2.403   1_545  S
Zr115       O934   2.405       .  S
O116        H172   0.991       .  S
O116        H180   0.990       .  S
O117        C137   1.283       .  A
O118        C543   1.284       .  A
O119       Zr129   2.436       .  S
O119        C138   1.285       .  A
O120       Zr128   2.409       .  S
O120        C139   1.280       .  A
O121        C946   1.285       .  A
O122       Zr130   2.428       .  S
O122        C137   1.283       .  A
O123       Zr130   2.377   1_565  S
O123       Zr532   2.393       .  S
O124       Zr130   2.370       .  S
O124       Zr937   2.392       .  S
O124        H159   0.967       .  S
O125       Zr128   2.399       .  S
O125       Zr145   2.398       .  S
O125       Zr519   2.400       .  S
O125        H162   0.965       .  S
O126       Zr129   2.393       .  S
O126       Zr923   2.403   1_455  S
O126      Zr1357   2.397   1_445  S
Zr127       O152   2.441       .  S
Zr127       O146   2.426       .  S
Zr127       O558   2.432       .  S
Zr127       O950   2.436   1_455  S
Zr127       O537   2.401       .  S
Zr127       O942   2.402   1_455  S
Zr127       O943   2.377   1_455  S
Zr127       O540   2.380       .  S
Zr128       O147   2.437       .  S
Zr128       O140   2.433       .  S
Zr128       O141   2.425       .  S
Zr128       O134   2.393       .  S
Zr128       O135   2.381       .  S
Zr128       O527   2.392       .  S
Zr129       O131   2.435       .  S
Zr129       O153   2.434       .  S
Zr129       O155   2.436       .  S
Zr129       O133   2.398       .  S
Zr129       O136   2.386       .  S
Zr129       O932   2.389   1_455  S
Zr130       O157   2.434       .  S
Zr130       O964   2.435       .  S
Zr130       O536   2.437   1_545  S
Zr130       O941   2.399       .  S
Zr130       O538   2.394   1_545  S
O131        H168   0.990       .  S
O132       Zr534   2.439       .  S
O132        H177   0.990       .  S
O132        H567   0.990       .  S
O133       Zr531   2.404   1_545  S
O133       Zr938   2.401   1_455  S
O134       Zr935   2.401       .  S
O134       Zr534   2.393       .  S
O134        H160   0.964       .  S
O135       Zr145   2.375       .  S
O135       Zr935   2.375       .  S
O136       Zr531   2.383   1_545  S
O136      Zr1357   2.368   1_445  S
O136        H161   0.966       .  S
C137        C303   1.470       .  S
C138        O929   1.285   1_455  A
C138        C220   1.473       .  S
C139        O522   1.285       .  A
C139        C188   1.463       .  S
O140        H176   0.990       .  S
O141        C143   1.284       .  A
O142       Zr935   2.435       .  S
O142        C143   1.285       .  A
C143        C319   1.469       .  S
O144       Zr549   2.440   1_545  S
O144        H577   0.991   1_545  S
Zr145       O148   2.436       .  S
Zr145       O548   2.440       .  S
Zr145      O1361   2.442       .  S
Zr145       O958   2.426       .  S
Zr145      O1338   2.392       .  S
Zr145      O1348   2.371       .  S
O146        C151   1.282       .  A
O147        H164   0.990       .  S
O147        H179   0.990       .  S
O148        H165   0.990       .  S
O149      Zr1357   2.441   1_445  S
O149        H169   0.990       .  S
O149        H178   0.990       .  S
O150       Zr953   2.426   1_455  S
O150        C151   1.284       .  A
C151        C204   1.468       .  S
O152        H575   0.990       .  S
O152        H983   0.990       .  S
O153        H167   0.990       .  S
O153        H174   0.990       .  S
O154       Zr531   2.435   1_545  S
O154        C158   1.286       .  A
O155        C158   1.284       .  A
O156       Zr938   2.436   1_455  S
O156        H974   0.990       .  S
O157        H574   0.990       .  S
C158        C335   1.473       .  S
H163        O536   0.990   1_545  S
H166        O964   0.990       .  S
H170        O561   0.990       .  S
H171        O556   0.990       .  S
H173        O548   0.990       .  S
H175        O960   0.990       .  S
C181        C186   1.381       .  A
C181        C182   1.399       .  A
C181        O187   1.316       .  A
C182        C183   1.399       .  A
C182        H193   1.082       .  S
C183        C192   1.356       .  A
C183        C184   1.381       .  A
C184        C185   1.402       .  A
C184        O190   1.318       .  A
C185        C186   1.402       .  A
C185        H194   1.082       .  S
C186        C189   1.359       .  A
O187        C188   1.328       .  A
C188        C189   1.392       .  A
C189        H195   1.083       .  S
O190        C191   1.329       .  A
C191        C192   1.389       .  A
C192        H196   1.082       .  S
C197        C202   1.380       .  A
C197        C198   1.405       .  A
C197        O203   1.320       .  A
C198        C199   1.404       .  A
C198        H209   1.082       .  S
C199        C208   1.363       .  A
C199        C200   1.380       .  A
C200        C201   1.397       .  A
C200        O206   1.313       .  A
C201        C202   1.397       .  A
C201        H210   1.082       .  S
C202        C205   1.355       .  A
O203        C204   1.332       .  A
C204        C205   1.389       .  A
C205        H211   1.083       .  S
O206        C207   1.328       .  A
C207        C208   1.393       .  A
C208        H212   1.082       .  S
C213        C218   1.380       .  A
C213        C214   1.406       .  A
C213        O219   1.320       .  A
C214        C215   1.405       .  A
C214        H225   1.082       .  S
C215        C224   1.365       .  A
C215        C216   1.381       .  A
C216        C217   1.401       .  A
C216        O222   1.316       .  A
C217        C218   1.400       .  A
C217        H226   1.082       .  S
C218        C221   1.360       .  A
O219        C220   1.333       .  A
C220        C221   1.391       .  A
C221       H1035   1.083   1_455  S
O222        C223   1.329       .  A
C223        C224   1.392       .  A
C224        H228   1.082       .  S
H227       C1029   1.083       .  S
C229        C234   1.380       .  A
C229        C230   1.410       .  A
C229        O235   1.325       .  A
C230        C231   1.410       .  A
C230        H241   1.082       .  S
C231        C240   1.371       .  A
C231        C232   1.381       .  A
C232        C233   1.394       .  A
C232        O238   1.310       .  A
C233        C234   1.393       .  A
C233        H242   1.083       .  S
C234        C237   1.350       .  A
O235        C236   1.334       .  A
C236        C237   1.388       .  A
C237        H243   1.083       .  S
O238        C239   1.326       .  A
C239        C240   1.394       .  A
C240        H244   1.082       .  S
C245        C250   1.381       .  A
C245        C246   1.403       .  A
C245        O251   1.319       .  A
C246        C247   1.403       .  A
C246        H257   1.082       .  S
C247        C256   1.360       .  A
C247        C248   1.380       .  A
C248        C249   1.402       .  A
C248        O254   1.318       .  A
C249        C250   1.402       .  A
C249        H258   1.082       .  S
C250        C253   1.360       .  A
O251        C252   1.331       .  A
C252        C253   1.391       .  A
C253        H259   1.083   1_455  S
O254        C255   1.331       .  A
C255        C256   1.392       .  A
C256        H260   1.081       .  S
C261        C266   1.380       .  A
C261        C262   1.406       .  A
C261        O267   1.321       .  A
C262        C263   1.405       .  A
C262        H273   1.082       .  S
C263        C272   1.364       .  A
C263        C264   1.380       .  A
C264        C265   1.403       .  A
C264        O270   1.318       .  A
C265        C266   1.403       .  A
C265        H274   1.082       .  S
C266        C269   1.361       .  A
O267        C268   1.332       .  A
C268        C269   1.392       .  A
C269        H275   1.083       .  S
O270        C271   1.330       .  A
C271        C272   1.392       .  A
C272        H276   1.081       .  S
C277        C282   1.380       .  A
C277        C278   1.401       .  A
C277        O283   1.317       .  A
C278        C279   1.401       .  A
C278        H289   1.082       .  S
C279        C288   1.357       .  A
C279        C280   1.378       .  A
C280        C281   1.407       .  A
C280        O286   1.322       .  A
C281        C282   1.406       .  A
C281        H290   1.082       .  S
C282        C285   1.365       .  A
O283        C284   1.330       .  A
C284        C285   1.394       .  A
C285        H291   1.082       .  S
O286        C287   1.335       .  A
C287        C288   1.397       .  A
C288        H292   1.080       .  S
C293        C298   1.378       .  A
C293        C294   1.407       .  A
C293        O299   1.320       .  A
C294        C295   1.406       .  A
C294        H305   1.082       .  S
C295        C304   1.365       .  A
C295        C296   1.381       .  A
C296        C297   1.399       .  A
C296        O302   1.315       .  A
C297        C298   1.398       .  A
C297        H306   1.082       .  S
C298        C301   1.357       .  A
O299        C300   1.334       .  A
C300        C301   1.394       .  A
C301        H307   1.080       .  S
O302        C303   1.329       .  A
C303        C304   1.394       .  A
C304        H308   1.083       .  S
C309        C314   1.380       .  A
C309        C310   1.404       .  A
C309        O315   1.320       .  A
C310        C311   1.403       .  A
C310        H321   1.082       .  S
C311        C320   1.362       .  A
C311        C312   1.381       .  A
C312        C313   1.402       .  A
C312        O318   1.318       .  A
C313        C314   1.402       .  A
C313        H322   1.082       .  S
C314        C317   1.360       .  A
O315        C316   1.331       .  A
C316        C317   1.393       .  A
C317        H323   1.082       .  S
O318        C319   1.330       .  A
C319        C320   1.392       .  A
C320        H324   1.083       .  S
C325        C330   1.380       .  A
C325        C326   1.402       .  A
C325        O331   1.318       .  A
C326        C327   1.401       .  A
C326        H337   1.082       .  S
C327        C336   1.361       .  A
C327        C328   1.380       .  A
C328        C329   1.407       .  A
C328        O334   1.321       .  A
C329        C330   1.406       .  A
C329        H338   1.082       .  S
C330        C333   1.366       .  A
O331        C332   1.330       .  A
C332        C333   1.393       .  A
C333        H339   1.082       .  S
O334        C335   1.333       .  A
C335        C336   1.391       .  A
C336        H340   1.083       .  S
C341        C346   1.381       .  A
C341        C342   1.397       .  A
C341        O347   1.314       .  A
C342        C343   1.397       .  A
C342        H353   1.083       .  S
C343        C352   1.352       .  A
C343        C344   1.380       .  A
C344        C345   1.412       .  A
C344        O350   1.328       .  A
C345        C346   1.411       .  A
C345        H354   1.082       .  S
C346        C349   1.372       .  A
O347        C348   1.328       .  A
C348        C349   1.394       .  A
C349        H355   1.082       .  S
O350        C351   1.335       .  A
C351        C352   1.389       .  A
C352        H356   1.083       .  S
C357        C362   1.381       .  A
C357        C358   1.400       .  A
C357        O363   1.317       .  A
C358        C359   1.399       .  A
C358        H369   1.082       .  S
C359        C368   1.355       .  A
C359        C360   1.378       .  A
C360        C361   1.405       .  A
C360        O366   1.320       .  A
C361        C362   1.405       .  A
C361        H370   1.082       .  S
C362        C365   1.363       .  A
O363        C364   1.330       .  A
C364        C365   1.393       .  A
C365        H371   1.082       .  S
O366        C367   1.334       .  A
C367        C368   1.395       .  A
C368        H372   1.080       .  S
C373        C378   1.381       .  A
C373        C374   1.402       .  A
C373        O379   1.319       .  A
C374        C375   1.402       .  A
C374        H385   1.082       .  S
C375        C384   1.359       .  A
C375        C376   1.380       .  A
C376        C377   1.404       .  A
C376        O382   1.320       .  A
C377        C378   1.404       .  A
C377        H386   1.082       .  S
C378        C381   1.362       .  A
O379        C380   1.331       .  A
C380        C381   1.393       .  A
C381        H387   1.083       .  S
O382        C383   1.330       .  A
C383        C384   1.393       .  A
C384        H388   1.082       .  S
C389        C394   1.380       .  A
C389        C390   1.405       .  A
C389        O395   1.322       .  A
C390        C391   1.405       .  A
C390        H401   1.082       .  S
C391        C400   1.362       .  A
C391        C392   1.381       .  A
C392        C393   1.403       .  A
C392        O398   1.320       .  A
C393        C394   1.403       .  A
C393        H402   1.082       .  S
C394        C397   1.359       .  A
O395        C396   1.332       .  A
C396        C397   1.392       .  A
C397        H403   1.082       .  S
O398        C399   1.331       .  A
C399        C400   1.392       .  A
C400        H404   1.083       .  S
C405        C406   1.529       .  S
C405        C411   1.533       .  S
C405        C409   1.531       .  S
C405        C771   1.513       .  S
C406        H413   1.085       .  S
C406        C407   1.369       .  D
C407        C408   1.545       .  S
C407        C787   1.482       .  S
C408        C412   1.543       .  S
C408        C410   1.544       .  S
C408        H414   1.111       .  S
C409        H415   1.086       .  S
C409        C410   1.368       .  D
C410        C800   1.477       .  S
C411        H416   1.083       .  S
C411        C412   1.365       .  D
C412        C755   1.480       .  S
C417        C418   1.533       .  S
C417        C423   1.534       .  S
C417        C421   1.533       .  S
C417        C704   1.509       .  S
C418        H425   1.086       .  S
C418        C419   1.366       .  D
C419        C420   1.543       .  S
C419        C736   1.477       .  S
C420        C424   1.542       .  S
C420        C422   1.538       .  S
C420        H426   1.110       .  S
C421        H427   1.086       .  S
C421        C422   1.367       .  D
C422        C720   1.476       .  S
C423        H428   1.083       .  S
C423        C424   1.362       .  D
C424        C752   1.474       .  S
C429        C430   1.535       .  S
C429        C435   1.534       .  S
C429        C433   1.535       .  S
C429        C691   1.515       .  S
C430        H437   1.086       .  S
C430        C431   1.366       .  D
C431        C432   1.541       .  S
C431        C675   1.475       .  S
C432        C436   1.540       .  S
C432        C434   1.541       .  S
C432        H438   1.110       .  S
C433        H439   1.086       .  S
C433        C434   1.367       .  D
C434        C659   1.479       .  S
C435        H440   1.083       .  S
C435        C436   1.363       .  D
C436        C643   1.474       .  S
C441        C442   1.529       .  S
C441        C447   1.530       .  S
C441        C445   1.532       .  S
C441        C611   1.502       .  S
C442        H449   1.086       .  S
C442        C443   1.365       .  D
C443        C444   1.540       .  S
C443        C627   1.468       .  S
C444        C448   1.539       .  S
C444        C446   1.537       .  S
C444        H450   1.111       .  S
C445        H451   1.086       .  S
C445        C446   1.366       .  D
C446        C595   1.473       .  S
C447        H452   1.086       .  S
C447        C448   1.366       .  D
C448        C640   1.475       .  S
Zr453       O454   2.440       .  S
Zr453       O455   2.426   1_556  S
Zr453      O1267   2.427   1_455  S
Zr453      O1270   2.382   1_456  S
Zr453      O1272   2.403   1_455  S
O454        H510   0.990       .  S
O455        C475   1.282       .  A
O456        C477   1.286       .  A
O457       Zr467   2.439       .  S
O457        C476   1.286       .  A
O458       Zr466   2.430   1_556  S
O458        C477   1.284       .  A
O459      Zr1261   2.427       .  S
O459        C476   1.284       .  A
O460       Zr872   2.429   1_455  S
O460        C475   1.283       .  A
O461       Zr466   2.396       .  S
O461      Zr1276   2.376       .  S
O462      Zr1261   2.382   1_554  S
O462       Zr467   2.389   1_554  S
O462        H497   0.967       .  S
O463       Zr466   2.403   1_556  S
O463      Zr1291   2.392   1_455  S
O463        H500   0.964       .  S
O464      Zr1261   2.403       .  S
O464       Zr467   2.395       .  S
Zr465       O490   2.442       .  S
Zr465       O484   2.436   1_554  S
Zr465       O492   2.428       .  S
Zr465       O480   2.431       .  S
Zr465      O1280   2.404       .  S
Zr465       O473   2.375   1_554  S
Zr465       O474   2.379   1_554  S
Zr466       O485   2.437   1_554  S
Zr466       O478   2.436       .  S
Zr466       O479   2.444       .  S
Zr466       O472   2.394       .  S
Zr466      O1281   2.386   1_554  S
Zr467       O469   2.435       .  S
Zr467       O491   2.439   1_556  S
Zr467       O493   2.449   1_556  S
Zr467       O471   2.389   1_556  S
Zr468       O495   2.433       .  S
Zr468      O1278   2.438       .  S
Zr468       O864   2.428       .  S
Zr468      O1269   2.376       .  S
Zr468      O1280   2.396       .  S
O469        H506   0.990       .  S
O470      Zr1276   2.437       .  S
O470        H501   0.990       .  S
O470        H515   0.990       .  S
O472      Zr1273   2.404   1_455  S
O472      Zr1276   2.398       .  S
O472        H498   0.964       .  S
O473      Zr1274   2.387   1_556  S
O473       Zr483   2.372       .  S
O474       Zr483   2.375       .  S
C475        C688   1.469       .  S
C476        C784   1.471       .  S
C477        C803   1.471       .  S
O478        H514   0.990       .  S
O479        C481   1.287       .  A
O480       C1289   1.285       .  A
C481       O1288   1.284   1_455  A
C481        C656   1.475       .  S
O482       Zr483   2.436       .  S
O482        H511   0.990       .  S
Zr483      O1294   2.437       .  S
Zr483       O488   2.427       .  S
Zr483      O1271   2.390       .  S
O484        C489   1.285       .  A
O485        H502   0.990       .  S
O485        H517   0.990       .  S
O486      Zr1291   2.437   1_455  S
O486       H1311   0.990       .  S
O487        H516   0.990       .  S
O488        C489   1.282       .  A
C489        C768   1.472       .  S
O490        H509   0.990       .  S
O490        H513   0.990       .  S
O491        H505   0.990       .  S
O491        H512   0.990       .  S
O493        C496   1.287       .  A
O494        H504   0.990       .  S
O495        H508   0.990       .  S
C496        C672   1.474       .  S
H503       O1294   0.990       .  S
Zr519       O520   2.438       .  S
Zr519       O521   2.421       .  S
Zr519       O522   2.442       .  S
Zr519       O525   2.422       .  S
Zr519       O527   2.376       .  S
Zr519       O528   2.381       .  S
Zr519      O1338   2.399       .  S
O520        H576   0.990       .  S
O520        H584   0.990       .  S
O521        C541   1.281       .  A
O523       Zr533   2.431       .  S
O523        C542   1.284       .  A
O524       Zr532   2.425       .  S
O524        C543   1.283       .  A
O525       C1350   1.284       .  A
O526       Zr534   2.425       .  S
O526        C541   1.282       .  A
O527       Zr534   2.375       .  S
O528      Zr1341   2.390       .  S
O528       Zr534   2.373       .  S
O528        H563   0.967       .  S
O529       Zr532   2.396       .  S
O529       Zr549   2.397       .  S
O529        H566   0.965       .  S
O530      Zr1327   2.401   1_455  S
O530       Zr533   2.392       .  S
O530       Zr953   2.395   1_455  S
Zr531       O556   2.442       .  S
Zr531       O550   2.420       .  S
Zr531      O1354   2.433   1_455  S
Zr531      O1346   2.403   1_455  S
Zr531      O1347   2.380   1_455  S
Zr532       O551   2.435       .  S
Zr532       O544   2.434       .  S
Zr532       O545   2.426       .  S
Zr532       O538   2.398       .  S
Zr532       O539   2.384       .  S
Zr533       O535   2.435       .  S
Zr533       O557   2.436       .  S
Zr533       O559   2.433       .  S
Zr533      O1336   2.390       .  S
Zr533       O537   2.392       .  S
Zr533       O540   2.383       .  S
Zr534      O1368   2.436       .  S
Zr534       O561   2.436       .  S
Zr534      O1345   2.398       .  S
O535        H572   0.990       .  S
O536        H581   0.990       .  S
O537      Zr1342   2.396   1_455  S
O538      Zr1339   2.404       .  S
O538        H564   0.964       .  S
O539      Zr1339   2.379       .  S
O539       Zr549   2.376       .  S
O540       Zr953   2.372   1_455  S
O540        H565   0.966       .  S
C541        C707   1.464       .  S
C542       O1333   1.284   1_455  A
C542        C624   1.467       .  S
C543        C592   1.468       .  S
O544        H580   0.990       .  S
O545        C547   1.284       .  A
O546      Zr1339   2.437       .  S
O546        C547   1.285       .  A
C547        C723   1.468       .  S
Zr549       O552   2.437       .  S
Zr549       O957   2.441   1_565  S
Zr549      O1362   2.427       .  S
Zr549       O934   2.396   1_565  S
Zr549       O944   2.369   1_565  S
O550        C555   1.280       .  A
O551        H568   0.990       .  S
O551        H583   0.990       .  S
O552        H569   0.990       .  S
O553       Zr953   2.442   1_455  S
O553        H573   0.990       .  S
O553        H582   0.990       .  S
O554      Zr1357   2.426   1_455  S
O554        C555   1.283       .  A
C555        C608   1.466       .  S
O556       H1387   0.990       .  S
O557        H571   0.990       .  S
O557        H578   0.990       .  S
O558        C562   1.286       .  A
O559        C562   1.284       .  A
O560      Zr1342   2.434   1_455  S
O560       H1378   0.990       .  S
C562        C739   1.470       .  S
H570       O1368   0.990       .  S
H579       O1364   0.990       .  S
C585        C590   1.381       .  A
C585        C586   1.400       .  A
C585        O591   1.318       .  A
C586        C587   1.400       .  A
C586        H597   1.082       .  S
C587        C596   1.356       .  A
C587        C588   1.380       .  A
C588        C589   1.404       .  A
C588        O594   1.320       .  A
C589        C590   1.404       .  A
C589        H598   1.082       .  S
C590        C593   1.362       .  A
O591        C592   1.329       .  A
C592        C593   1.392       .  A
C593        H599   1.082       .  S
O594        C595   1.331       .  A
C595        C596   1.390       .  A
C596        H600   1.082       .  S
C601        C606   1.380       .  A
C601        C602   1.406       .  A
C601        O607   1.321       .  A
C602        C603   1.405       .  A
C602        H613   1.082       .  S
C603        C612   1.363       .  A
C603        C604   1.381       .  A
C604        C605   1.396       .  A
C604        O610   1.313       .  A
C605        C606   1.395       .  A
C605        H614   1.082       .  S
C606        C609   1.353       .  A
O607        C608   1.333       .  A
C608        C609   1.387       .  A
C609        H615   1.083       .  S
O610        C611   1.328       .  A
C611        C612   1.394       .  A
C612        H616   1.082       .  S
C617        C622   1.381       .  A
C617        C618   1.403       .  A
C617        O623   1.319       .  A
C618        C619   1.402       .  A
C618        H629   1.082       .  S
C619        C628   1.361       .  A
C619        C620   1.381       .  A
C620        C621   1.399       .  A
C620        O626   1.315       .  A
C621        C622   1.399       .  A
C621        H630   1.082       .  S
C622        C625   1.356       .  A
O623        C624   1.331       .  A
C624        C625   1.389       .  A
C625       H1439   1.083   1_455  S
O626        C627   1.329       .  A
C627        C628   1.390       .  A
C628        H632   1.082       .  S
H631       C1433   1.083       .  S
C633        C638   1.380       .  A
C633        C634   1.410       .  A
C633        O639   1.324       .  A
C634        C635   1.409       .  A
C634        H645   1.082       .  S
C635        C644   1.370       .  A
C635        C636   1.381       .  A
C636        C637   1.395       .  A
C636        O642   1.311       .  A
C637        C638   1.394       .  A
C637        H646   1.083       .  S
C638        C641   1.351       .  A
O639        C640   1.333       .  A
C640        C641   1.388       .  A
C641        H647   1.083       .  S
O642        C643   1.327       .  A
C643        C644   1.394       .  A
C644        H648   1.082       .  S
C649        C654   1.380       .  A
C649        C650   1.404       .  A
C649        O655   1.320       .  A
C650        C651   1.403       .  A
C650        H661   1.082       .  S
C651        C660   1.361       .  A
C651        C652   1.379       .  A
C652        C653   1.404       .  A
C652        O658   1.319       .  A
C653        C654   1.404       .  A
C653        H662   1.082       .  S
C654        C657   1.363       .  A
O655        C656   1.331       .  A
C656        C657   1.393       .  A
C657        H663   1.083   1_455  S
O658        C659   1.332       .  A
C659        C660   1.391       .  A
C660        H664   1.080       .  S
C665        C670   1.380       .  A
C665        C666   1.404       .  A
C665        O671   1.320       .  A
C666        C667   1.404       .  A
C666        H677   1.082       .  S
C667        C676   1.362       .  A
C667        C668   1.380       .  A
C668        C669   1.403       .  A
C668        O674   1.318       .  A
C669        C670   1.403       .  A
C669        H678   1.082       .  S
C670        C673   1.361       .  A
O671        C672   1.331       .  A
C672        C673   1.393       .  A
C673        H679   1.083       .  S
O674        C675   1.331       .  A
C675        C676   1.391       .  A
C676        H680   1.080       .  S
C681        C686   1.381       .  A
C681        C682   1.399       .  A
C681        O687   1.316       .  A
C682        C683   1.399       .  A
C682        H693   1.082       .  S
C683        C692   1.357       .  A
C683        C684   1.378       .  A
C684        C685   1.407       .  A
C684        O690   1.321       .  A
C685        C686   1.406       .  A
C685        H694   1.082       .  S
C686        C689   1.365       .  A
O687        C688   1.329       .  A
C688        C689   1.394       .  A
C689        H695   1.083       .  S
O690        C691   1.334       .  A
C691        C692   1.395       .  A
C692        H696   1.080       .  S
C697        C702   1.378       .  A
C697        C698   1.404       .  A
C697        O703   1.318       .  A
C698        C699   1.404       .  A
C698        H709   1.082       .  S
C699        C708   1.362       .  A
C699        C700   1.381       .  A
C700        C701   1.398       .  A
C700        O706   1.314       .  A
C701        C702   1.397       .  A
C701        H710   1.082       .  S
C702        C705   1.355       .  A
O703        C704   1.333       .  A
C704        C705   1.394       .  A
C705        H711   1.080       .  S
O706        C707   1.328       .  A
C707        C708   1.393       .  A
C708        H712   1.083       .  S
C713        C718   1.380       .  A
C713        C714   1.404       .  A
C713        O719   1.319       .  A
C714        C715   1.403       .  A
C714        H725   1.082       .  S
C715        C724   1.361       .  A
C715        C716   1.381       .  A
C716        C717   1.401       .  A
C716        O722   1.318       .  A
C717        C718   1.401       .  A
C717        H726   1.082       .  S
C718        C721   1.358       .  A
O719        C720   1.331       .  A
C720        C721   1.391       .  A
C721        H727   1.082       .  S
O722        C723   1.330       .  A
C723        C724   1.392       .  A
C724        H728   1.083       .  S
C729        C734   1.380       .  A
C729        C730   1.402       .  A
C729        O735   1.318       .  A
C730        C731   1.401       .  A
C730        H741   1.082       .  S
C731        C740   1.361       .  A
C731        C732   1.380       .  A
C732        C733   1.405       .  A
C732        O738   1.320       .  A
C733        C734   1.404       .  A
C733        H742   1.082       .  S
C734        C737   1.364       .  A
O735        C736   1.331       .  A
C736        C737   1.392       .  A
C737        H743   1.082       .  S
O738        C739   1.332       .  A
C739        C740   1.390       .  A
C740        H744   1.083       .  S
C745        C750   1.381       .  A
C745        C746   1.397       .  A
C745        O751   1.313       .  A
C746        C747   1.396       .  A
C746        H757   1.083       .  S
C747        C756   1.352       .  A
C747        C748   1.380       .  A
C748        C749   1.411       .  A
C748        O754   1.327       .  A
C749        C750   1.410       .  A
C749        H758   1.082       .  S
C750        C753   1.371       .  A
O751        C752   1.328       .  A
C752        C753   1.393       .  A
C753        H759   1.082       .  S
O754        C755   1.334       .  A
C755        C756   1.389       .  A
C756        H760   1.083       .  S
C761        C766   1.380       .  A
C761        C762   1.401       .  A
C761        O767   1.317       .  A
C762        C763   1.400       .  A
C762        H773   1.082       .  S
C763        C772   1.357       .  A
C763        C764   1.378       .  A
C764        C765   1.405       .  A
C764        O770   1.320       .  A
C765        C766   1.405       .  A
C765        H774   1.082       .  S
C766        C769   1.364       .  A
O767        C768   1.330       .  A
C768        C769   1.393       .  A
C769        H775   1.082       .  S
O770        C771   1.334       .  A
C771        C772   1.395       .  A
C772        H776   1.080       .  S
C777        C782   1.381       .  A
C777        C778   1.402       .  A
C777        O783   1.319       .  A
C778        C779   1.402       .  A
C778        H789   1.082       .  S
C779        C788   1.358       .  A
C779        C780   1.380       .  A
C780        C781   1.405       .  A
C780        O786   1.322       .  A
C781        C782   1.405       .  A
C781        H790   1.082       .  S
C782        C785   1.362       .  A
O783        C784   1.331       .  A
C784        C785   1.392       .  A
C785        H791   1.082       .  S
O786        C787   1.332       .  A
C787        C788   1.393       .  A
C788        H792   1.082       .  S
C793        C798   1.380       .  A
C793        C794   1.404       .  A
C793        O799   1.321       .  A
C794        C795   1.405       .  A
C794        H805   1.082       .  S
C795        C804   1.363       .  A
C795        C796   1.381       .  A
C796        C797   1.401       .  A
C796        O802   1.318       .  A
C797        C798   1.401       .  A
C797        H806   1.082       .  S
C798        C801   1.358       .  A
O799        C800   1.331       .  A
C800        C801   1.392       .  A
C801        H807   1.082       .  S
O802        C803   1.330       .  A
C803        C804   1.393       .  A
C804        H808   1.083       .  S
C809        C810   1.528       .  S
C809        C815   1.534       .  S
C809        C813   1.534       .  S
C809       C1175   1.512       .  S
C810        H817   1.086       .  S
C810        C811   1.366       .  D
C811        C812   1.544       .  S
C811       C1191   1.477       .  S
C812        C816   1.543       .  S
C812        C814   1.543       .  S
C812        H818   1.111       .  S
C813        H819   1.086       .  S
C813        C814   1.369       .  D
C814       C1204   1.479       .  S
C815        H820   1.082       .  S
C815        C816   1.365       .  D
C816       C1159   1.482       .  S
C821        C822   1.533       .  S
C821        C827   1.535       .  S
C821        C825   1.533       .  S
C821       C1108   1.511       .  S
C822        H829   1.087       .  S
C822        C823   1.365       .  D
C823        C824   1.544       .  S
C823       C1140   1.477       .  S
C824        C828   1.543       .  S
C824        C826   1.541       .  S
C824        H830   1.110       .  S
C825        H831   1.086       .  S
C825        C826   1.367       .  D
C826       C1124   1.480       .  S
C827        H832   1.084       .  S
C827        C828   1.364       .  D
C828       C1156   1.477       .  S
C833        C834   1.537       .  S
C833        C839   1.535       .  S
C833        C837   1.535       .  S
C833       C1095   1.518       .  S
C834        H841   1.086       .  S
C834        C835   1.367       .  D
C835        C836   1.541       .  S
C835       C1079   1.478       .  S
C836        C840   1.539       .  S
C836        C838   1.543       .  S
C836        H842   1.109       .  S
C837        H843   1.086       .  S
C837        C838   1.368       .  D
C838       C1063   1.479       .  S
C839        H844   1.083       .  S
C839        C840   1.363       .  D
C840       C1047   1.476       .  S
C845        C846   1.531       .  S
C845        C851   1.530       .  S
C845        C849   1.530       .  S
C845       C1015   1.503       .  S
C846        H853   1.086       .  S
C846        C847   1.366       .  D
C847        C848   1.540       .  S
C847       C1031   1.471       .  S
C848        C852   1.540       .  S
C848        C850   1.538       .  S
C848        H854   1.111       .  S
C849        H855   1.086       .  S
C849        C850   1.366       .  D
C850        C999   1.468       .  S
C851        H856   1.086       .  S
C851        C852   1.365       .  D
C852       C1044   1.476       .  S
Zr857       O858   2.441       .  S
Zr857       O859   2.432   1_556  S
Zr857      O1264   2.443       .  S
Zr857      O1269   2.383   1_556  S
Zr857      O1271   2.405       .  S
O858        H914   0.990       .  S
O858       H1326   0.990       .  S
O859        C879   1.284       .  A
O860      Zr1261   2.433   1_545  S
O860        C881   1.284       .  A
O861       Zr871   2.436       .  S
O861        C880   1.286       .  A
O862       Zr870   2.431   1_556  S
O862        C881   1.285       .  A
O863        C880   1.285       .  A
O864        C879   1.282       .  A
O865      Zr1261   2.383   1_544  S
O865       Zr870   2.393       .  S
O866       Zr871   2.391   1_554  S
O866      Zr1276   2.369   1_655  S
O866        H901   0.967       .  S
O867      Zr1261   2.404   1_545  S
O867       Zr870   2.399   1_556  S
O867        H904   0.964       .  S
O868       Zr871   2.395       .  S
O868      Zr1291   2.399       .  S
Zr869       O894   2.441       .  S
Zr869       O888   2.429   1_554  S
Zr869       O896   2.422   1_545  S
Zr869       O884   2.426       .  S
Zr869      O1279   2.401   1_545  S
Zr869       O877   2.375   1_654  S
Zr869       O878   2.379   1_544  S
Zr870       O889   2.436   1_554  S
Zr870       O882   2.434       .  S
Zr870       O883   2.438       .  S
Zr870       O876   2.394       .  S
Zr871       O873   2.434       .  S
Zr871       O895   2.438   1_556  S
Zr871       O897   2.446   1_556  S
Zr871       O875   2.391   1_556  S
Zr871      O1282   2.385       .  S
Zr872      O1302   2.434       .  S
Zr872       O899   2.435   1_565  S
Zr872      O1270   2.373       .  S
Zr872      O1279   2.399       .  S
O873        H910   0.990       .  S
O874        H905   0.990       .  S
O874        H919   0.990       .  S
O875      Zr1273   2.402       .  S
O875      Zr1276   2.397   1_655  S
O876        H902   0.964       .  S
O877       Zr887   2.371   1_455  S
O878      Zr1275   2.387       .  S
O878       Zr887   2.374   1_565  S
O878       H1307   0.967       .  S
C879       C1092   1.472       .  S
C880       C1188   1.472       .  S
C881       C1207   1.470       .  S
O882        H918   0.990       .  S
O883        C885   1.285       .  A
C885       C1060   1.470       .  S
O886       Zr887   2.437       .  S
O886        H915   0.990       .  S
Zr887      O1295   2.438   1_545  S
Zr887       O892   2.424       .  S
Zr887      O1272   2.398   1_545  S
O888        C893   1.283       .  A
O889        H906   0.990       .  S
O889        H921   0.990       .  S
O891      Zr1291   2.438       .  S
O891       H1315   0.990       .  S
O891        H920   0.990       .  S
O892        C893   1.282       .  A
C893       C1172   1.468       .  S
O894        H913   0.990       .  S
O894        H917   0.990       .  S
O895        H909   0.990       .  S
O895        H916   0.990       .  S
O896       C1304   1.283       .  A
O897        C900   1.287       .  A
O898      Zr1276   2.433   1_655  S
O898        H908   0.990       .  S
O899        H912   0.990       .  S
C900       O1300   1.284       .  A
C900       C1076   1.476       .  S
H903       O1282   0.967       .  S
H911       O1295   0.990       .  S
H922       O1262   0.990       .  S
Zr923       O924   2.438       .  S
Zr923       O925   2.426       .  S
Zr923       O926   2.436   1_545  S
Zr923       O929   2.429       .  S
Zr923       O931   2.379   1_545  S
Zr923       O932   2.382       .  S
Zr923      O1337   2.404   1_545  S
O924        H980   0.990       .  S
O924        H988   0.990       .  S
O925        C945   1.282       .  A
O926       C1351   1.284       .  A
O927       Zr937   2.435       .  S
O927        C946   1.284       .  A
O928       Zr936   2.409       .  S
O928        C947   1.280       .  A
O930       Zr938   2.428       .  S
O930        C945   1.283       .  A
O931      Zr1340   2.393       .  S
O931       Zr938   2.378   1_565  S
O932       Zr938   2.370       .  S
O932        H967   0.967   1_655  S
O933      Zr1327   2.402       .  S
O933       Zr936   2.398       .  S
O933       Zr953   2.397       .  S
O933        H970   0.965       .  S
O934       Zr937   2.394       .  S
Zr935       O960   2.439       .  S
Zr935       O954   2.426       .  S
Zr935      O1366   2.429       .  S
Zr935      O1345   2.402       .  S
Zr935      O1348   2.380       .  S
Zr936       O955   2.436       .  S
Zr936       O948   2.432       .  S
Zr936       O949   2.422       .  S
Zr936      O1335   2.392       .  S
Zr936       O942   2.392       .  S
Zr936       O943   2.383       .  S
Zr937       O939   2.435       .  S
Zr937       O961   2.435       .  S
Zr937       O963   2.437       .  S
Zr937       O941   2.397       .  S
Zr937       O944   2.387       .  S
Zr938       O965   2.437       .  S
Zr938      O1344   2.437   1_545  S
Zr938      O1346   2.394   1_545  S
O939        H976   0.990       .  S
O940      Zr1342   2.438       .  S
O940       H1375   0.990       .  S
O940        H985   0.990       .  S
O941      Zr1339   2.404   1_545  S
O942      Zr1342   2.393       .  S
O942        H968   0.964       .  S
O943       Zr953   2.374       .  S
O944      Zr1339   2.384   1_545  S
O944        H969   0.966       .  S
C945       C1111   1.468       .  S
C946       C1028   1.472       .  S
C947       O1330   1.284       .  A
C947        C996   1.462       .  S
O948        H984   0.990       .  S
O949        C951   1.283       .  A
O950        C951   1.285       .  A
C951       C1127   1.468       .  S
O952      Zr1357   2.440   1_545  S
O952       H1385   0.991   1_545  S
Zr953      O1356   2.439       .  S
Zr953       O956   2.437       .  S
O954        C959   1.283       .  A
O955        H972   0.990       .  S
O955        H987   0.990       .  S
O956        H973   0.990       .  S
O957        H977   0.990       .  S
O957        H986   0.990       .  S
O958        C959   1.284       .  A
C959       C1012   1.468       .  S
O960       H1383   0.990       .  S
O961        H975   0.990       .  S
O961        H982   0.990       .  S
O962      Zr1339   2.437   1_545  S
O962        C966   1.286       .  A
O963        C966   1.285       .  A
O965       H1382   0.990   1_655  S
C966       C1143   1.474       .  S
H971       O1344   0.990   1_545  S
H978       O1369   0.990   1_455  S
H979       O1364   0.990       .  S
H981       O1356   0.990       .  S
C989        C994   1.381       .  A
C989        C990   1.399       .  A
C989        O995   1.316       .  A
C990        C991   1.399       .  A
C990       H1001   1.082       .  S
C991       C1000   1.355       .  A
C991        C992   1.381       .  A
C992        C993   1.402       .  A
C992        O998   1.318       .  A
C993        C994   1.402       .  A
C993       H1002   1.082       .  S
C994        C997   1.358       .  A
O995        C996   1.328       .  A
C996        C997   1.391       .  A
C997       H1003   1.083       .  S
O998        C999   1.330       .  A
C999       C1000   1.389       .  A
C1000      H1004   1.082       .  S
C1005      C1010   1.380       .  A
C1005      C1006   1.406       .  A
C1005      O1011   1.320       .  A
C1006      C1007   1.405       .  A
C1006      H1017   1.082       .  S
C1007      C1016   1.365       .  A
C1007      C1008   1.380       .  A
C1008      C1009   1.398       .  A
C1008      O1014   1.312       .  A
C1009      C1010   1.397       .  A
C1009      H1018   1.082       .  S
C1010      C1013   1.356       .  A
O1011      C1012   1.332       .  A
C1012      C1013   1.389       .  A
C1013      H1019   1.083       .  S
O1014      C1015   1.328       .  A
C1015      C1016   1.394       .  A
C1016      H1020   1.082       .  S
C1021      C1026   1.380       .  A
C1021      C1022   1.406       .  A
C1021      O1027   1.320       .  A
C1022      C1023   1.405       .  A
C1022      H1033   1.082       .  S
C1023      C1032   1.364       .  A
C1023      C1024   1.381       .  A
C1024      C1025   1.400       .  A
C1024      O1030   1.315       .  A
C1025      C1026   1.399       .  A
C1025      H1034   1.082       .  S
C1026      C1029   1.359       .  A
O1027      C1028   1.333       .  A
C1028      C1029   1.390       .  A
O1030      C1031   1.329       .  A
C1031      C1032   1.391       .  A
C1032      H1036   1.082       .  S
C1037      C1042   1.380       .  A
C1037      C1038   1.410       .  A
C1037      O1043   1.325       .  A
C1038      C1039   1.410       .  A
C1038      H1049   1.082       .  S
C1039      C1048   1.372       .  A
C1039      C1040   1.381       .  A
C1040      C1041   1.395       .  A
C1040      O1046   1.311       .  A
C1041      C1042   1.394       .  A
C1041      H1050   1.083       .  S
C1042      C1045   1.351       .  A
O1043      C1044   1.334       .  A
C1044      C1045   1.388       .  A
C1045      H1051   1.083       .  S
O1046      C1047   1.327       .  A
C1047      C1048   1.395       .  A
C1048      H1052   1.082       .  S
C1053      C1058   1.381       .  A
C1053      C1054   1.403       .  A
C1053      O1059   1.319       .  A
C1054      C1055   1.403       .  A
C1054      H1065   1.082       .  S
C1055      C1064   1.360       .  A
C1055      C1056   1.380       .  A
C1056      C1057   1.404       .  A
C1056      O1062   1.319       .  A
C1057      C1058   1.403       .  A
C1057      H1066   1.082       .  S
C1058      C1061   1.361       .  A
O1059      C1060   1.331       .  A
C1060      C1061   1.392       .  A
C1061      H1067   1.083       .  S
O1062      C1063   1.332       .  A
C1063      C1064   1.391       .  A
C1064      H1068   1.081       .  S
C1069      C1074   1.380       .  A
C1069      C1070   1.405       .  A
C1069      O1075   1.321       .  A
C1070      C1071   1.405       .  A
C1070      H1081   1.082       .  S
C1071      C1080   1.364       .  A
C1071      C1072   1.380       .  A
C1072      C1073   1.404       .  A
C1072      O1078   1.319       .  A
C1073      C1074   1.404       .  A
C1073      H1082   1.082       .  S
C1074      C1077   1.362       .  A
O1075      C1076   1.332       .  A
C1076      C1077   1.393       .  A
C1077      H1083   1.083       .  S
O1078      C1079   1.331       .  A
C1079      C1080   1.392       .  A
C1080      H1084   1.081       .  S
C1085      C1090   1.380       .  A
C1085      C1086   1.401       .  A
C1085      O1091   1.317       .  A
C1086      C1087   1.401       .  A
C1086      H1097   1.082       .  S
C1087      C1096   1.357       .  A
C1087      C1088   1.378       .  A
C1088      C1089   1.407       .  A
C1088      O1094   1.322       .  A
C1089      C1090   1.407       .  A
C1089      H1098   1.082       .  S
C1090      C1093   1.366       .  A
O1091      C1092   1.330       .  A
C1092      C1093   1.394       .  A
C1093      H1099   1.082       .  S
O1094      C1095   1.335       .  A
C1095      C1096   1.396       .  A
C1096      H1100   1.080       .  S
C1101      C1106   1.378       .  A
C1101      C1102   1.406       .  A
C1101      O1107   1.319       .  A
C1102      C1103   1.405       .  A
C1102      H1113   1.082       .  S
C1103      C1112   1.365       .  A
C1103      C1104   1.381       .  A
C1104      C1105   1.398       .  A
C1104      O1110   1.314       .  A
C1105      C1106   1.398       .  A
C1105      H1114   1.082       .  S
C1106      C1109   1.356       .  A
O1107      C1108   1.334       .  A
C1108      C1109   1.394       .  A
C1109      H1115   1.080       .  S
O1110      C1111   1.328       .  A
C1111      C1112   1.394       .  A
C1112      H1116   1.083       .  S
C1117      C1122   1.380       .  A
C1117      C1118   1.404       .  A
C1117      O1123   1.320       .  A
C1118      C1119   1.403       .  A
C1118      H1129   1.082       .  S
C1119      C1128   1.363       .  A
C1119      C1120   1.380       .  A
C1120      C1121   1.403       .  A
C1120      O1126   1.318       .  A
C1121      C1122   1.403       .  A
C1121      H1130   1.082       .  S
C1122      C1125   1.361       .  A
O1123      C1124   1.331       .  A
C1124      C1125   1.394       .  A
C1125      H1131   1.082       .  S
O1126      C1127   1.330       .  A
C1127      C1128   1.393       .  A
C1128      H1132   1.083       .  S
C1133      C1138   1.380       .  A
C1133      C1134   1.404       .  A
C1133      O1139   1.318       .  A
C1134      C1135   1.403       .  A
C1134      H1145   1.082       .  S
C1135      C1144   1.362       .  A
C1135      C1136   1.380       .  A
C1136      C1137   1.405       .  A
C1136      O1142   1.321       .  A
C1137      C1138   1.404       .  A
C1137      H1146   1.082       .  S
C1138      C1141   1.364       .  A
O1139      C1140   1.332       .  A
C1140      C1141   1.391       .  A
C1141      H1147   1.082       .  S
O1142      C1143   1.332       .  A
C1143      C1144   1.392       .  A
C1144      H1148   1.083       .  S
C1149      C1154   1.381       .  A
C1149      C1150   1.397       .  A
C1149      O1155   1.314       .  A
C1150      C1151   1.396       .  A
C1150      H1161   1.083       .  S
C1151      C1160   1.352       .  A
C1151      C1152   1.380       .  A
C1152      C1153   1.412       .  A
C1152      O1158   1.328       .  A
C1153      C1154   1.412       .  A
C1153      H1162   1.082       .  S
C1154      C1157   1.372       .  A
O1155      C1156   1.328       .  A
C1156      C1157   1.394       .  A
C1157      H1163   1.082       .  S
O1158      C1159   1.335       .  A
C1159      C1160   1.389       .  A
C1160      H1164   1.083       .  S
C1165      C1170   1.381       .  A
C1165      C1166   1.399       .  A
C1165      O1171   1.316       .  A
C1166      C1167   1.399       .  A
C1166      H1177   1.082       .  S
C1167      C1176   1.355       .  A
C1167      C1168   1.378       .  A
C1168      C1169   1.405       .  A
C1168      O1174   1.320       .  A
C1169      C1170   1.405       .  A
C1169      H1178   1.082       .  S
C1170      C1173   1.363       .  A
O1171      C1172   1.329       .  A
C1172      C1173   1.392       .  A
C1173      H1179   1.082       .  S
O1174      C1175   1.334       .  A
C1175      C1176   1.395       .  A
C1176      H1180   1.080       .  S
C1181      C1186   1.381       .  A
C1181      C1182   1.402       .  A
C1181      O1187   1.319       .  A
C1182      C1183   1.402       .  A
C1182      H1193   1.082       .  S
C1183      C1192   1.359       .  A
C1183      C1184   1.380       .  A
C1184      C1185   1.403       .  A
C1184      O1190   1.320       .  A
C1185      C1186   1.404       .  A
C1185      H1194   1.082       .  S
C1186      C1189   1.361       .  A
O1187      C1188   1.331       .  A
C1188      C1189   1.392       .  A
C1189      H1195   1.083       .  S
O1190      C1191   1.330       .  A
C1191      C1192   1.393       .  A
C1192      H1196   1.082       .  S
C1197      C1202   1.380       .  A
C1197      C1198   1.405       .  A
C1197      O1203   1.322       .  A
C1198      C1199   1.405       .  A
C1198      H1209   1.082       .  S
C1199      C1208   1.362       .  A
C1199      C1200   1.381       .  A
C1200      C1201   1.402       .  A
C1200      O1206   1.319       .  A
C1201      C1202   1.402       .  A
C1201      H1210   1.082       .  S
C1202      C1205   1.359       .  A
O1203      C1204   1.332       .  A
C1204      C1205   1.392       .  A
C1205      H1211   1.082       .  S
O1206      C1207   1.330       .  A
C1207      C1208   1.392       .  A
C1208      H1212   1.083       .  S
C1213      C1214   1.530       .  S
C1213      C1219   1.534       .  S
C1213      C1217   1.530       .  S
C1213      C1579   1.515       .  S
C1214      H1221   1.085       .  S
C1214      C1215   1.369       .  D
C1215      C1216   1.546       .  S
C1215      C1595   1.484       .  S
C1216      C1220   1.544       .  S
C1216      C1218   1.545       .  S
C1216      H1222   1.111       .  S
C1217      H1223   1.086       .  S
C1217      C1218   1.367       .  D
C1218      C1608   1.478       .  S
C1219      H1224   1.083       .  S
C1219      C1220   1.365       .  D
C1220      C1563   1.483       .  S
C1225      C1226   1.534       .  S
C1225      C1231   1.534       .  S
C1225      C1229   1.532       .  S
C1225      C1512   1.510       .  S
C1226      H1233   1.086       .  S
C1226      C1227   1.367       .  D
C1227      C1228   1.543       .  S
C1227      C1544   1.477       .  S
C1228      C1232   1.541       .  S
C1228      C1230   1.538       .  S
C1228      H1234   1.110       .  S
C1229      H1235   1.086       .  S
C1229      C1230   1.367       .  D
C1230      C1528   1.475       .  S
C1231      H1236   1.083       .  S
C1231      C1232   1.362       .  D
C1232      C1560   1.474       .  S
C1237      C1238   1.534       .  S
C1237      C1243   1.533       .  S
C1237      C1241   1.535       .  S
C1237      C1499   1.513       .  S
C1238      H1245   1.086       .  S
C1238      C1239   1.365       .  D
C1239      C1240   1.540       .  S
C1239      C1483   1.472       .  S
C1240      C1244   1.540       .  S
C1240      C1242   1.541       .  S
C1240      H1246   1.110       .  S
C1241      H1247   1.086       .  S
C1241      C1242   1.367       .  D
C1242      C1467   1.478       .  S
C1243      H1248   1.083       .  S
C1243      C1244   1.363       .  D
C1244      C1451   1.474       .  S
C1249      C1250   1.529       .  S
C1249      C1255   1.530       .  S
C1249      C1253   1.531       .  S
C1249      C1419   1.502       .  S
C1250      H1257   1.086       .  S
C1250      C1251   1.365       .  D
C1251      C1252   1.540       .  S
C1251      C1435   1.468       .  S
C1252      C1256   1.539       .  S
C1252      C1254   1.536       .  S
C1252      H1258   1.111       .  S
C1253      H1259   1.086       .  S
C1253      C1254   1.366       .  D
C1254      C1403   1.470       .  S
C1255      H1260   1.086       .  S
C1255      C1256   1.365       .  D
C1256      C1448   1.475       .  S
Zr1261     O1262   2.439       .  S
Zr1261     O1263   2.429   1_556  S
O1262      H1318   0.990       .  S
O1263      C1283   1.283       .  A
O1264      C1285   1.286       .  A
O1265     Zr1275   2.435       .  S
O1265      C1284   1.285       .  A
O1266     Zr1274   2.432   1_556  S
O1266      C1285   1.284       .  A
O1267      C1284   1.283       .  A
O1268      C1283   1.282       .  A
O1269     Zr1274   2.396       .  S
O1270     Zr1275   2.390   1_554  S
O1270      H1305   0.967       .  S
O1271     Zr1274   2.402   1_556  S
O1271      H1308   0.964       .  S
O1272     Zr1275   2.394       .  S
Zr1273     O1298   2.441       .  S
Zr1273     O1292   2.430   1_554  S
Zr1273     O1300   2.428       .  S
Zr1273     O1288   2.431       .  S
Zr1273     O1281   2.375   1_654  S
Zr1273     O1282   2.380   1_554  S
Zr1274     O1293   2.436   1_554  S
Zr1274     O1286   2.436       .  S
Zr1274     O1287   2.442       .  S
Zr1274     O1280   2.393       .  S
Zr1275     O1277   2.435       .  S
Zr1275     O1299   2.440   1_556  S
Zr1275     O1301   2.443   1_556  S
Zr1275     O1279   2.392   1_556  S
Zr1276     O1303   2.433   1_455  S
O1277      H1314   0.990       .  S
O1278      H1309   0.990       .  S
O1278      H1323   0.990       .  S
O1280      H1306   0.964       .  S
O1281     Zr1291   2.370   1_455  S
O1282     Zr1291   2.373       .  S
C1283      C1496   1.468       .  S
C1284      C1592   1.470       .  S
C1285      C1611   1.471       .  S
O1286      H1322   0.990       .  S
O1287      C1289   1.286       .  A
C1289      C1464   1.474       .  S
O1290     Zr1291   2.438       .  S
O1290      H1319   0.990       .  S
Zr1291     O1296   2.432       .  S
O1292      C1297   1.284       .  A
O1293      H1310   0.990       .  S
O1293      H1325   0.990       .  S
O1295      H1324   0.990       .  S
O1296      C1297   1.283       .  A
C1297      C1576   1.473       .  S
O1298      H1317   0.990       .  S
O1298      H1321   0.990       .  S
O1299      H1313   0.990       .  S
O1299      H1320   0.990       .  S
O1301      C1304   1.286       .  A
O1302      H1312   0.990       .  S
O1303      H1316   0.990       .  S
C1304      C1480   1.470       .  S
Zr1327     O1328   2.440       .  S
Zr1327     O1329   2.426       .  S
Zr1327     O1330   2.439       .  S
Zr1327     O1333   2.425       .  S
Zr1327     O1335   2.378       .  S
Zr1327     O1336   2.380   1_655  S
O1328      H1384   0.991       .  S
O1328      H1392   0.990       .  S
O1329      C1349   1.282       .  A
O1331     Zr1341   2.425       .  S
O1331      C1350   1.282       .  A
O1332     Zr1340   2.426       .  S
O1332      C1351   1.283       .  A
O1334     Zr1342   2.425       .  S
O1334      C1349   1.282       .  A
O1335     Zr1342   2.376       .  S
O1336     Zr1342   2.372   1_455  S
O1336      H1371   0.967       .  S
O1337     Zr1340   2.396       .  S
O1337     Zr1357   2.398       .  S
O1337      H1374   0.965       .  S
O1338     Zr1341   2.391       .  S
Zr1339     O1364   2.443       .  S
Zr1339     O1358   2.426       .  S
Zr1340     O1359   2.436       .  S
Zr1340     O1352   2.434       .  S
Zr1340     O1353   2.424       .  S
Zr1340     O1346   2.399       .  S
Zr1340     O1347   2.385       .  S
Zr1341     O1343   2.435       .  S
Zr1341     O1365   2.436       .  S
Zr1341     O1367   2.429       .  S
Zr1341     O1345   2.392       .  S
Zr1341     O1348   2.381       .  S
Zr1342     O1369   2.435       .  S
O1343      H1380   0.990       .  S
O1344      H1389   0.990       .  S
O1346      H1372   0.964       .  S
O1347     Zr1357   2.375       .  S
O1348      H1373   0.966       .  S
C1349      C1515   1.466       .  S
C1350      C1432   1.464       .  S
C1351      C1400   1.467       .  S
O1352      H1388   0.990       .  S
O1353      C1355   1.283       .  A
O1354      C1355   1.284       .  A
C1355      C1531   1.466       .  S
Zr1357     O1360   2.438       .  S
O1358      C1363   1.282       .  A
O1359      H1376   0.990       .  S
O1359      H1391   0.990       .  S
O1360      H1377   0.990       .  S
O1361      H1381   0.990       .  S
O1361      H1390   0.990       .  S
O1362      C1363   1.284       .  A
C1363      C1416   1.469       .  S
O1365      H1379   0.990       .  S
O1365      H1386   0.990       .  S
O1366      C1370   1.285       .  A
O1367      C1370   1.284       .  A
C1370      C1547   1.468       .  S
C1393      C1398   1.381       .  A
C1393      C1394   1.399       .  A
C1393      O1399   1.317       .  A
C1394      C1395   1.399       .  A
C1394      H1405   1.082       .  S
C1395      C1404   1.356       .  A
C1395      C1396   1.381       .  A
C1396      C1397   1.404       .  A
C1396      O1402   1.320       .  A
C1397      C1398   1.404       .  A
C1397      H1406   1.082       .  S
C1398      C1401   1.361       .  A
O1399      C1400   1.329       .  A
C1400      C1401   1.392       .  A
C1401      H1407   1.083       .  S
O1402      C1403   1.331       .  A
C1403      C1404   1.389       .  A
C1404      H1408   1.082       .  S
C1409      C1414   1.380       .  A
C1409      C1410   1.407       .  A
C1409      O1415   1.321       .  A
C1410      C1411   1.405       .  A
C1410      H1421   1.082       .  S
C1411      C1420   1.364       .  A
C1411      C1412   1.380       .  A
C1412      C1413   1.396       .  A
C1412      O1418   1.312       .  A
C1413      C1414   1.396       .  A
C1413      H1422   1.082       .  S
C1414      C1417   1.354       .  A
O1415      C1416   1.333       .  A
C1416      C1417   1.388       .  A
C1417      H1423   1.083       .  S
O1418      C1419   1.328       .  A
C1419      C1420   1.394       .  A
C1420      H1424   1.082       .  S
C1425      C1430   1.381       .  A
C1425      C1426   1.403       .  A
C1425      O1431   1.319       .  A
C1426      C1427   1.403       .  A
C1426      H1437   1.082       .  S
C1427      C1436   1.361       .  A
C1427      C1428   1.381       .  A
C1428      C1429   1.399       .  A
C1428      O1434   1.314       .  A
C1429      C1430   1.398       .  A
C1429      H1438   1.082       .  S
C1430      C1433   1.356       .  A
O1431      C1432   1.331       .  A
C1432      C1433   1.389       .  A
O1434      C1435   1.329       .  A
C1435      C1436   1.390       .  A
C1436      H1440   1.082       .  S
C1441      C1446   1.380       .  A
C1441      C1442   1.410       .  A
C1441      O1447   1.324       .  A
C1442      C1443   1.409       .  A
C1442      H1453   1.082       .  S
C1443      C1452   1.371       .  A
C1443      C1444   1.381       .  A
C1444      C1445   1.395       .  A
C1444      O1450   1.310       .  A
C1445      C1446   1.393       .  A
C1445      H1454   1.083       .  S
C1446      C1449   1.351       .  A
O1447      C1448   1.333       .  A
C1448      C1449   1.388       .  A
C1449      H1455   1.083       .  S
O1450      C1451   1.327       .  A
C1451      C1452   1.394       .  A
C1452      H1456   1.082       .  S
C1457      C1462   1.380       .  A
C1457      C1458   1.404       .  A
C1457      O1463   1.320       .  A
C1458      C1459   1.403       .  A
C1458      H1469   1.082       .  S
C1459      C1468   1.361       .  A
C1459      C1460   1.379       .  A
C1460      C1461   1.404       .  A
C1460      O1466   1.319       .  A
C1461      C1462   1.403       .  A
C1461      H1470   1.082       .  S
C1462      C1465   1.362       .  A
O1463      C1464   1.332       .  A
C1464      C1465   1.392       .  A
C1465      H1471   1.083       .  S
O1466      C1467   1.332       .  A
C1467      C1468   1.391       .  A
C1468      H1472   1.080       .  S
C1473      C1478   1.381       .  A
C1473      C1474   1.403       .  A
C1473      O1479   1.319       .  A
C1474      C1475   1.402       .  A
C1474      H1485   1.082       .  S
C1475      C1484   1.361       .  A
C1475      C1476   1.380       .  A
C1476      C1477   1.402       .  A
C1476      O1482   1.318       .  A
C1477      C1478   1.402       .  A
C1477      H1486   1.082       .  S
C1478      C1481   1.360       .  A
O1479      C1480   1.331       .  A
C1480      C1481   1.392       .  A
C1481      H1487   1.083       .  S
O1482      C1483   1.330       .  A
C1483      C1484   1.390       .  A
C1484      H1488   1.080       .  S
C1489      C1494   1.381       .  A
C1489      C1490   1.399       .  A
C1489      O1495   1.315       .  A
C1490      C1491   1.399       .  A
C1490      H1501   1.082       .  S
C1491      C1500   1.356       .  A
C1491      C1492   1.378       .  A
C1492      C1493   1.406       .  A
C1492      O1498   1.320       .  A
C1493      C1494   1.405       .  A
C1493      H1502   1.082       .  S
C1494      C1497   1.364       .  A
O1495      C1496   1.329       .  A
C1496      C1497   1.393       .  A
C1497      H1503   1.082       .  S
O1498      C1499   1.334       .  A
C1499      C1500   1.395       .  A
C1500      H1504   1.080       .  S
C1505      C1510   1.378       .  A
C1505      C1506   1.404       .  A
C1505      O1511   1.319       .  A
C1506      C1507   1.404       .  A
C1506      H1517   1.082       .  S
C1507      C1516   1.362       .  A
C1507      C1508   1.381       .  A
C1508      C1509   1.399       .  A
C1508      O1514   1.315       .  A
C1509      C1510   1.398       .  A
C1509      H1518   1.082       .  S
C1510      C1513   1.356       .  A
O1511      C1512   1.333       .  A
C1512      C1513   1.395       .  A
C1513      H1519   1.080       .  S
O1514      C1515   1.328       .  A
C1515      C1516   1.393       .  A
C1516      H1520   1.083       .  S
C1521      C1526   1.380       .  A
C1521      C1522   1.402       .  A
C1521      O1527   1.319       .  A
C1522      C1523   1.402       .  A
C1522      H1533   1.082       .  S
C1523      C1532   1.360       .  A
C1523      C1524   1.381       .  A
C1524      C1525   1.401       .  A
C1524      O1530   1.317       .  A
C1525      C1526   1.401       .  A
C1525      H1534   1.082       .  S
C1526      C1529   1.358       .  A
O1527      C1528   1.330       .  A
C1528      C1529   1.391       .  A
C1529      H1535   1.082       .  S
O1530      C1531   1.329       .  A
C1531      C1532   1.391       .  A
C1532      H1536   1.083       .  S
C1537      C1542   1.380       .  A
C1537      C1538   1.402       .  A
C1537      O1543   1.317       .  A
C1538      C1539   1.401       .  A
C1538      H1549   1.082       .  S
C1539      C1548   1.360       .  A
C1539      C1540   1.380       .  A
C1540      C1541   1.405       .  A
C1540      O1546   1.319       .  A
C1541      C1542   1.404       .  A
C1541      H1550   1.082       .  S
C1542      C1545   1.364       .  A
O1543      C1544   1.331       .  A
C1544      C1545   1.392       .  A
C1545      H1551   1.082       .  S
O1546      C1547   1.332       .  A
C1547      C1548   1.390       .  A
C1548      H1552   1.083       .  S
C1553      C1558   1.381       .  A
C1553      C1554   1.398       .  A
C1553      O1559   1.314       .  A
C1554      C1555   1.398       .  A
C1554      H1565   1.083       .  S
C1555      C1564   1.354       .  A
C1555      C1556   1.380       .  A
C1556      C1557   1.411       .  A
C1556      O1562   1.327       .  A
C1557      C1558   1.410       .  A
C1557      H1566   1.082       .  S
C1558      C1561   1.371       .  A
O1559      C1560   1.328       .  A
C1560      C1561   1.393       .  A
C1561      H1567   1.082       .  S
O1562      C1563   1.335       .  A
C1563      C1564   1.390       .  A
C1564      H1568   1.083       .  S
C1569      C1574   1.380       .  A
C1569      C1570   1.400       .  A
C1569      O1575   1.317       .  A
C1570      C1571   1.400       .  A
C1570      H1581   1.082       .  S
C1571      C1580   1.357       .  A
C1571      C1572   1.378       .  A
C1572      C1573   1.407       .  A
C1572      O1578   1.321       .  A
C1573      C1574   1.407       .  A
C1573      H1582   1.082       .  S
C1574      C1577   1.365       .  A
O1575      C1576   1.330       .  A
C1576      C1577   1.394       .  A
C1577      H1583   1.082       .  S
O1578      C1579   1.335       .  A
C1579      C1580   1.395       .  A
C1580      H1584   1.080       .  S
C1585      C1590   1.381       .  A
C1585      C1586   1.402       .  A
C1585      O1591   1.318       .  A
C1586      C1587   1.402       .  A
C1586      H1597   1.082       .  S
C1587      C1596   1.358       .  A
C1587      C1588   1.380       .  A
C1588      C1589   1.405       .  A
C1588      O1594   1.322       .  A
C1589      C1590   1.405       .  A
C1589      H1598   1.082       .  S
C1590      C1593   1.363       .  A
O1591      C1592   1.330       .  A
C1592      C1593   1.392       .  A
C1593      H1599   1.082       .  S
O1594      C1595   1.332       .  A
C1595      C1596   1.394       .  A
C1596      H1600   1.082       .  S
C1601      C1606   1.380       .  A
C1601      C1602   1.404       .  A
C1601      O1607   1.321       .  A
C1602      C1603   1.404       .  A
C1602      H1613   1.082       .  S
C1603      C1612   1.363       .  A
C1603      C1604   1.381       .  A
C1604      C1605   1.402       .  A
C1604      O1610   1.319       .  A
C1605      C1606   1.402       .  A
C1605      H1614   1.082       .  S
C1606      C1609   1.358       .  A
O1607      C1608   1.331       .  A
C1608      C1609   1.393       .  A
C1609      H1615   1.082       .  S
O1610      C1611   1.330       .  A
C1611      C1612   1.393       .  A
C1612      H1616   1.083       .  S
