geometry optimzed in LAMMPS
_audit_creation_date              2020-11-30 
_audit_creation_method            'lammps2cif' 
_symmetry_space_group_name_H-M    'P1' 
_symmetry_Int_Tables_number       1 
_symmetry_cell_setting            triclinic 
loop_ 
_symmetry_equiv_pos_as_xyz 
  x,y,z 
_cell_length_a                    42.112985576371784 
_cell_length_b                    41.99445215467917 
_cell_length_c                    42.229722178887286 
_cell_angle_alpha                 89.65257560662803 
_cell_angle_beta                  89.83886190308807 
_cell_angle_gamma                 90.05355536836568 
loop_ 
_atom_site_label 
_atom_site_type_symbol 
_atom_site_fract_x 
_atom_site_fract_y 
_atom_site_fract_z 
_atom_site_charge 
C1          C  0.36434106  0.36884156  0.99316113     0.03330
C2          C  0.37451317  0.33800661  0.50314167    -0.12820
C3          C  0.35230728  0.31625042  0.51510397     0.00830
C4          C  0.32208480  0.32833378  0.52222677    -0.11350
C5          C  0.30972149  0.35323349  0.00378021     0.03320
C6          C  0.33138776  0.37326992  0.98820947    -0.10770
H7          H  0.39907163  0.33066161  0.50172782     0.08920
H8          H  0.30658046  0.31488219  0.53744302     0.06440
H9          H  0.32268408  0.39173679  0.97272390     0.06290
C10         C  0.36858345  0.22606594  0.51485872     0.03330
C11         C  0.37380980  0.25881794  0.52154377    -0.12820
C12         C  0.35399232  0.28153436  0.50729391     0.00830
C13         C  0.33141532  0.27024818  0.48603488    -0.11350
C14         C  0.31818150  0.23991808  0.49040244     0.03320
C15         C  0.33826285  0.21663306  0.50326755    -0.10770
H16         H  0.39341369  0.26630837  0.53622673     0.08920
H17         H  0.31939540  0.28708727  0.47145974     0.06440
H18         H  0.33093671  0.19191435  0.50341487     0.06290
C19         C  0.22925881  0.22015069  0.97666432     0.03330
C20         C  0.26284839  0.21509581  0.97660316    -0.12820
C21         C  0.28246117  0.23839976  0.99020460     0.00830
C22         C  0.26717179  0.26475402  0.00293554    -0.11350
C23         C  0.23888371  0.27567159  0.99012167     0.03320
C24         C  0.21817212  0.25234554  0.97889878    -0.10770
H25         H  0.27316364  0.19356364  0.96739316     0.08920
H26         H  0.28016125  0.28031267  0.01768672     0.06440
H27         H  0.19387691  0.25896585  0.97396189     0.06290
C28         C  0.21974281  0.36191936  0.00800617     0.03330
C29         C  0.25229066  0.37032737  0.01098453    -0.12820
C30         C  0.27533760  0.35206156  0.99571144     0.00830
C31         C  0.26477156  0.32655904  0.97758999    -0.11350
C32         C  0.23639453  0.31113848  0.98598957     0.03320
C33         C  0.21219243  0.33025957  0.99860557    -0.10770
H34         H  0.25925271  0.39194518  0.02301615     0.08920
H35         H  0.28109889  0.31454213  0.96236349     0.06440
H36         H  0.18837154  0.32089481  0.00012647     0.06290
C37         C  0.36560635  0.03751045  0.32451035     0.03330
C38         C  0.33497839  0.04983469  0.33196919    -0.12820
C39         C  0.31577194  0.06095074  0.30716512     0.00830
C40         C  0.33039469  0.06314549  0.27733402    -0.11350
C41         C  0.35297982  0.04046492  0.26869646     0.03320
C42         C  0.37186656  0.02798839  0.29294433    -0.10770
H43         H  0.32672926  0.05137403  0.35621618     0.08920
H44         H  0.31953768  0.07705512  0.25922513     0.06440
H45         H  0.39169900  0.01262103  0.28740195     0.06290
C46         C  0.22502167  0.06946805  0.32167976     0.03330
C47         C  0.25822834  0.07324603  0.32779758    -0.12820
C48         C  0.28005539  0.05925013  0.30683368     0.00830
C49         C  0.26713988  0.04313877  0.28129816    -0.11350
C50         C  0.23871852  0.05291741  0.26794204     0.03320
C51         C  0.21579025  0.06386576  0.28938086    -0.10770
H52         H  0.26665748  0.08527853  0.34860420     0.08920
H53         H  0.28190471  0.02777182  0.26819418     0.06440
H54         H  0.19154662  0.06596908  0.28135852     0.06290
C55         C  0.22293371  0.03116240  0.18130488     0.03330
C56         C  0.21456504  0.04071063  0.21265979    -0.12820
C57         C  0.23812901  0.05365495  0.23219468     0.00830
C58         C  0.26690757  0.06177577  0.21743886    -0.11350
C59         C  0.27857341  0.04338911  0.19265295     0.03320
C60         C  0.25588742  0.02829529  0.17360023    -0.10770
H61         H  0.19048694  0.03940120  0.22133321     0.08920
H62         H  0.28267503  0.07747369  0.22933959     0.06440
H63         H  0.26339713  0.01625735  0.15224668     0.06290
C64         C  0.36935084  0.04700965  0.18226401     0.03330
C65         C  0.33654886  0.04845627  0.17365241    -0.12820
C66         C  0.31334530  0.03528312  0.19388142     0.00830
C67         C  0.32413603  0.02071081  0.22176740    -0.11350
C68         C  0.35321458  0.02984767  0.23499032     0.03320
C69         C  0.37695940  0.03972812  0.21413697    -0.10770
H70         H  0.32943813  0.05857534  0.15111441     0.08920
H71         H  0.30812576  0.00615439  0.23530523     0.06440
H72         H  0.40076785  0.04114082  0.22308078     0.06290
C73         C  0.05443679  0.22619043  0.32371014     0.03330
C74         C  0.05263610  0.25897149  0.33160634    -0.12820
C75         C  0.04000653  0.28039615  0.30940882     0.00830
C76         C  0.02669375  0.26720278  0.28211022    -0.11350
C77         C  0.03818713  0.23846895  0.26994376     0.03320
C78         C  0.05063212  0.21667286  0.29177665    -0.10770
H79         H  0.05993328  0.26723290  0.35471454     0.08920
H80         H  0.01116712  0.28134561  0.26803678     0.06440
H81         H  0.05604629  0.19262002  0.28443756     0.06290
C82         C  0.03524645  0.37098114  0.31989093     0.03330
C83         C  0.03446573  0.33838734  0.32920611    -0.12820
C84         C  0.04658665  0.31556223  0.30835849     0.00830
C85         C  0.06130426  0.32712037  0.28095662    -0.11350
C86         C  0.05112610  0.35548341  0.26671829     0.03320
C87         C  0.03941176  0.37896378  0.28727444    -0.10770
H88         H  0.02642731  0.33138192  0.35261319     0.08920
H89         H  0.07649489  0.31180527  0.26806135     0.06440
H90         H  0.03500238  0.40288439  0.27866865     0.06290
C91         C  0.03425005  0.22245338  0.18050661     0.03330
C92         C  0.03168377  0.21569735  0.21346583    -0.12820
C93         C  0.04431053  0.23757477  0.23495826     0.00830
C94         C  0.06025156  0.26371652  0.22204213    -0.11350
C95         C  0.05095499  0.27651789  0.19289167     0.03320
C96         C  0.03946647  0.25463852  0.17061462    -0.10770
H97         H  0.02151023  0.19352333  0.22187946     0.08920
H98         H  0.07549417  0.27713837  0.23674611     0.06440
H99         H  0.03590168  0.26196999  0.14626377     0.06290
C100        C  0.06301391  0.36618032  0.17674268     0.03330
C101        C  0.06020270  0.37598014  0.20890314    -0.12820
C102        C  0.04756503  0.35447450  0.23116404     0.00830
C103        C  0.03513364  0.32623320  0.21906543    -0.11390
C104        C  0.04766759  0.31230727  0.19181435     0.03320
C105        C  0.06027961  0.33328664  0.16906466    -0.10770
H106        H  0.06624496  0.39998667  0.21590617     0.08920
H107        H  0.02008263  0.31236791  0.23370571     0.06440
H108        H  0.06649500  0.32476063  0.14571151     0.06290
O109        O  0.49482625  0.45397995  0.99872145    -0.79930
O110        O  0.49296802  0.13580785  0.00515475    -0.81490
O111        O  0.45662314  0.04345242  0.05429297    -0.78500
O112        O  0.45319557  0.04547709  0.45199853    -0.76890
O113        O  0.49035259  0.04605462  0.41265209    -0.78680
O114        O  0.49519586  0.04261659  0.09208291    -0.79610
O115        O  0.45483954  0.09717270  0.00577925    -0.80940
O116        O  0.45680587  0.49238662  0.99984980    -0.81230
Eu117      Eu  0.48176235  0.04539219  0.00218216     2.39200
O118        O  0.01223635  0.07939998  0.46933892    -0.88740
O119        O  0.01439569  0.01227937  0.03329068    -0.92340
C120        C  0.46564741  0.46295662  0.99815907     1.02350
C121        C  0.46374207  0.12650995  0.00717363     1.02170
C122        C  0.46581279  0.04265195  0.08330815     1.02110
C123        C  0.46130107  0.04479657  0.42264089     0.99970
H124        H  0.00125617  0.08977121  0.04734340     0.29720
O125        O  0.01453602  0.07717512  0.03362544    -1.01120
H126        H  0.99959253  0.00124428  0.45565788     0.29750
O127        O  0.01313278  0.01424364  0.46869443    -1.03670
O128        O  0.09849770  0.13677662  0.99844655    -0.80890
O129        O  0.09767263  0.45468298  0.99886480    -0.80430
O130        O  0.04426199  0.09734193  0.09128048    -0.78870
O131        O  0.04415485  0.10007407  0.41056052    -0.82210
O132        O  0.04123766  0.49665962  0.40822276    -0.80060
O133        O  0.05014676  0.49173550  0.08987059    -0.78710
O134        O  0.13671489  0.04326188  0.05139432    -0.80230
O135        O  0.13449717  0.04919221  0.44580404    -0.82160
O136        O  0.09935149  0.04319420  0.09065311    -0.78900
O137        O  0.09538507  0.04925678  0.40863094    -0.81570
O138        O  0.04392890  0.13648889  0.05333941    -0.77310
O139        O  0.04890749  0.45405407  0.05076751    -0.77340
O140        O  0.04387840  0.45711650  0.44573040    -0.76980
O141        O  0.04444435  0.13789967  0.44944015    -0.80480
O142        O  0.13661849  0.09813868  0.99676470    -0.79900
O143        O  0.13571836  0.49334928  0.99973908    -0.78230
Eu144      Eu  0.04568986  0.11073764  0.00139473     2.39770
Eu145      Eu  0.04612914  0.48131147  0.99904247     2.39570
Eu146      Eu  0.04708713  0.04481953  0.06501423     2.38400
Eu147      Eu  0.04391182  0.04745965  0.43619144     2.39880
Eu148      Eu  0.11013599  0.04608274  0.99910194     2.39790
O149        O  0.07781768  0.01422091  0.46635458    -0.92650
O150        O  0.07910265  0.07831050  0.03289802    -0.91540
C151        C  0.12769257  0.12755036  0.99588497     1.02520
C152        C  0.12684837  0.46392202  0.99985018     1.01240
C153        C  0.04261741  0.12684657  0.08235244     1.00630
C154        C  0.04470562  0.12915129  0.42015850     1.02640
C155        C  0.04130453  0.46718548  0.41683843     1.01560
C156        C  0.05062730  0.46269939  0.08000614     1.00410
C157        C  0.12842264  0.04218586  0.08090363     1.00470
C158        C  0.12482488  0.05072628  0.41673678     1.03080
H159        H  0.09172716  0.00006036  0.04367158     0.30450
O160        O  0.07816275  0.01353729  0.03101913    -1.04810
H161        H  0.08944439  0.09216839  0.45503152     0.32500
O162        O  0.07665694  0.07858006  0.46846844    -1.07370
C163        C  0.03137949  0.39695396  0.13866148    -0.05580
C164        C  0.06153642  0.39030055  0.15116703     0.00350
C165        C  0.08839588  0.40693448  0.13971823    -0.08230
C166        C  0.08400724  0.43063246  0.11632250    -0.05600
C167        C  0.05372393  0.43741189  0.10409234     0.00330
C168        C  0.02699052  0.42029116  0.11511782    -0.08130
C169        C  0.49401435  0.42711759  0.10228797     0.62240
H170        H  0.51115717  0.38379255  0.14779921     0.12940
H171        H  0.10415352  0.44400677  0.10733409     0.12950
C172        C  0.12128810  0.39916658  0.15194114     0.62480
F173        F  0.47109587  0.40830680  0.11672395    -0.22690
F174        F  0.49331164  0.42119720  0.07012075    -0.20020
F175        F  0.48630567  0.45868077  0.10746682    -0.19700
F176        F  0.12776673  0.36732450  0.14686664    -0.19750
F177        F  0.12280845  0.40523667  0.18404643    -0.20070
F178        F  0.14448058  0.41704225  0.13678472    -0.22740
C179        C  0.01415419  0.19787960  0.13107937    -0.05580
C180        C  0.03480823  0.19622831  0.15699912     0.00350
C181        C  0.05815280  0.17168708  0.15814723    -0.08230
C182        C  0.05932405  0.14936471  0.13349206    -0.05600
C183        C  0.03908060  0.15132548  0.10734486     0.00330
C184        C  0.01587234  0.17588863  0.10606814    -0.08130
C185        C  0.99243967  0.17853114  0.07894896     0.62240
H186        H  0.99690540  0.21698213  0.13038815     0.12940
H187        H  0.07670389  0.13037063  0.13407536     0.12950
C188        C  0.08284342  0.16951790  0.18436251     0.62480
F189        F  0.96937874  0.20130797  0.08456850    -0.22690
F190        F  0.97733390  0.14963332  0.07493422    -0.20020
F191        F  0.00819483  0.18699625  0.05139647    -0.19700
F192        F  0.06859650  0.16010783  0.21240148    -0.19750
F193        F  0.09748196  0.19870827  0.18838678    -0.20070
F194        F  0.10631419  0.14752423  0.17747592    -0.22740
C195        C  0.00965112  0.41412279  0.35113884    -0.05580
C196        C  0.03669144  0.39592545  0.34445183     0.00350
C197        C  0.06543118  0.40193405  0.36091079    -0.08230
C198        C  0.06563737  0.42501211  0.38483817    -0.05600
C199        C  0.03867796  0.44311965  0.39165846     0.00330
C200        C  0.01029751  0.43819993  0.37429423    -0.08130
C201        C  0.48104969  0.45849478  0.37998664     0.62240
H202        H  0.48820577  0.40954956  0.33781908     0.12940
H203        H  0.08712273  0.42958100  0.39812115     0.12950
C204        C  0.09606023  0.38466883  0.35264653     0.62480
F205        F  0.45528695  0.44807090  0.36257791    -0.22690
F206        F  0.48740917  0.48961043  0.37125424    -0.20020
F207        F  0.47270039  0.45756723  0.41162793    -0.19700
F208        F  0.10283217  0.38882258  0.32081964    -0.19750
F209        F  0.09305277  0.35253945  0.35922083    -0.20070
F210        F  0.12163373  0.39610260  0.36971381    -0.22740
C211        C  0.07624871  0.15947420  0.38062408    -0.05580
C212        C  0.04686917  0.15428279  0.39568345     0.00350
C213        C  0.02038382  0.17295259  0.38715633    -0.08230
C214        C  0.02429999  0.19672098  0.36395905    -0.05600
C215        C  0.05368603  0.20192009  0.34900281     0.00330
C216        C  0.08019548  0.18319077  0.35730629    -0.08130
C217        C  0.11239231  0.18864580  0.34201247     0.62240
H218        H  0.09630743  0.14503958  0.38753895     0.12940
H219        H  0.50423250  0.21121691  0.35686878     0.12950
C220        C  0.48814063  0.16723457  0.40215132     0.62480
F221        F  0.13547354  0.16905977  0.35492726    -0.22690
F222        F  0.12164240  0.21991991  0.34636780    -0.20020
F223        F  0.11071808  0.18250719  0.30994877    -0.19700
F224        F  0.49010512  0.17221179  0.43432928    -0.19750
F225        F  0.47861787  0.13620286  0.39677230    -0.20070
F226        F  0.46521293  0.18748404  0.39002443    -0.22740
C227        C  0.38818335  0.03234394  0.12913547    -0.05580
C228        C  0.39463635  0.04889566  0.15724811     0.00350
C229        C  0.42529128  0.06296478  0.16095454    -0.08230
C230        C  0.44786251  0.05922130  0.13660344    -0.05600
C231        C  0.44091755  0.04325633  0.10834698     0.00330
C232        C  0.41050499  0.02922371  0.10463116    -0.08130
C233        C  0.40157266  0.00969538  0.07579427     0.62240
H234        H  0.36532766  0.02084816  0.12672653     0.12940
H235        H  0.47126541  0.06957331  0.13940330     0.12950
C236        C  0.43572079  0.08183593  0.18973146     0.62480
F237        F  0.39756817  0.02944880  0.04980311    -0.22690
F238        F  0.42499426  0.98751397  0.06956686    -0.20020
F239        F  0.37343653  0.99327206  0.08050218    -0.19700
F240        F  0.45096945  0.06171929  0.21084940    -0.19750
F241        F  0.41037207  0.09658422  0.20441696    -0.20070
F242        F  0.45697334  0.10553705  0.18105389    -0.22740
C243        C  0.20633348  0.04705690  0.12745960    -0.05580
C244        C  0.19881472  0.02991824  0.15525093     0.00350
C245        C  0.16818164  0.01592481  0.15786470    -0.08230
C246        C  0.14602735  0.02110485  0.13334015    -0.05600
C247        C  0.15364013  0.03836567  0.10558738     0.00330
C248        C  0.18461487  0.05140881  0.10254695    -0.08130
C249        C  0.19461955  0.07131368  0.07406657     0.62240
H250        H  0.22947859  0.05815635  0.12577092     0.12940
H251        H  0.12246784  0.01091483  0.13566772     0.12950
C252        C  0.15780662  0.99526854  0.18563074     0.62480
F253        F  0.22408074  0.08522399  0.07836810    -0.22690
F254        F  0.17283090  0.09544794  0.06914032    -0.20020
F255        F  0.19656669  0.05237511  0.04746198    -0.19700
F256        F  0.14041904  0.01340614  0.20668085    -0.19750
F257        F  0.18336476  0.98164429  0.20107987    -0.20070
F258        F  0.13870855  0.97069980  0.17520896    -0.22740
C259        C  0.16942036  0.07655854  0.34119778    -0.05580
C260        C  0.20078645  0.06724076  0.34804820     0.00350
C261        C  0.20636578  0.05095744  0.37745599    -0.08230
C262        C  0.18104132  0.04742148  0.39906001    -0.05600
C263        C  0.14959741  0.05532921  0.39142112     0.00330
C264        C  0.14348009  0.06834997  0.36079628    -0.08130
C265        C  0.11013713  0.07214138  0.34752822     0.62240
H266        H  0.16493615  0.08919405  0.31931746     0.12940
H267        H  0.18565567  0.03711885  0.42213049     0.12950
C268        C  0.23790141  0.03552712  0.38647075     0.62480
F269        F  0.11025510  0.08408555  0.31688793    -0.22690
F270        F  0.09272424  0.09272868  0.36585985    -0.20020
F271        F  0.09526449  0.04276195  0.34687910    -0.19700
F272        F  0.25956367  0.05851824  0.39524786    -0.19750
F273        F  0.24966682  0.01774279  0.36162596    -0.20070
F274        F  0.23463335  0.01488867  0.41195288    -0.22740
C275        C  0.38502430  0.02352594  0.37807298    -0.05580
C276        C  0.39121711  0.03752989  0.34853339     0.00350
C277        C  0.42004686  0.05466960  0.34375905    -0.08230
C278        C  0.44185021  0.05631111  0.36874659    -0.05600
C279        C  0.43579886  0.04234991  0.39840329     0.00330
C280        C  0.40664439  0.02568783  0.40331709    -0.08130
C281        C  0.39825615  0.00953535  0.43452774     0.62240
H282        H  0.36268807  0.01110373  0.38126549     0.12940
H283        H  0.46400141  0.06899407  0.36531113     0.12950
C284        C  0.42779036  0.07230681  0.31301516     0.62480
F285        F  0.37033220  0.99221016  0.43269130    -0.22690
F286        F  0.39426572  0.03209937  0.45792402    -0.20020
F287        F  0.42216823  0.98870589  0.44286702    -0.19700
F288        F  0.40249807  0.09126446  0.30402097    -0.19750
F289        F  0.43455059  0.05079097  0.28932433    -0.20070
F290        F  0.45402670  0.09193925  0.31611865    -0.22740
C291        C  0.20349195  0.41610993  0.49266390    -0.05580
C292        C  0.19554247  0.38786260  0.00908960     0.00350
C293        C  0.16501800  0.38525868  0.02316567    -0.08230
C294        C  0.14328064  0.41033748  0.01870421    -0.05600
C295        C  0.15147728  0.43866943  0.00253914     0.00330
C296        C  0.18248173  0.44183478  0.48969393    -0.08130
C297        C  0.19353748  0.47162257  0.47212898     0.62240
H298        H  0.22657525  0.41777906  0.48146113     0.12940
H299        H  0.11968190  0.40807983  0.02879944     0.12950
C300        C  0.15437329  0.35702936  0.04317139     0.62480
F301        F  0.22311604  0.46758257  0.95834861    -0.22690
F302        F  0.19588594  0.99676369  0.99300234    -0.20020
F303        F  0.17234393  0.97914378  0.44827051    -0.19700
F304        F  0.17977787  0.34115882  0.05661684    -0.19750
F305        F  0.13722801  0.33622288  0.52454859    -0.20070
F306        F  0.13508705  0.36709101  0.56771375    -0.22740
C307        C  0.18321538  0.14568553  0.50348638    -0.05580
C308        C  0.15319011  0.15186471  0.99061551     0.00350
C309        C  0.14941711  0.17908928  0.97089029    -0.08230
C310        C  0.17610234  0.19802249  0.96375300    -0.05600
C311        C  0.20570293  0.19326089  0.97838801     0.00330
C312        C  0.20923544  0.16637899  0.49907462    -0.08130
C313        C  0.23942834  0.15925492  0.51764394     0.62240
H314        H  0.18599230  0.12448273  0.51783500     0.12940
H315        H  0.17354286  0.21787610  0.94754013     0.12950
C316        C  0.11751791  0.18833853  0.95723297     0.62480
F317        F  0.23483691  0.13541838  0.03991506    -0.22690
F318        F  0.24934992  0.18592633  0.03389227    -0.20020
F319        F  0.26302930  0.14892591  0.49740531    -0.19700
F320        F  0.09705020  0.19682368  0.98141923    -0.19750
F321        F  0.10526682  0.16283532  0.44109078    -0.20070
F322        F  0.11962824  0.21381473  0.43633952    -0.22740
C323        C  0.44544303  0.18166126  0.49788533    -0.05580
C324        C  0.43907712  0.15168897  0.01128577     0.00350
C325        C  0.41042494  0.14733140  0.02880459    -0.08230
C326        C  0.38910950  0.17307834  0.03134353    -0.05600
C327        C  0.39487498  0.20246325  0.51639417     0.00330
C328        C  0.42355044  0.20678902  0.49895433    -0.08130
C329        C  0.43079966  0.23689909  0.47987048     0.62240
H330        H  0.46777374  0.18519860  0.48577142     0.12940
H331        H  0.36701379  0.17013369  0.04420842     0.12950
C332        C  0.40209149  0.11600384  0.04501299     0.62480
F333        F  0.45697146  0.23312871  0.46031955    -0.22690
F334        F  0.43730653  0.26186051  0.99998970    -0.20020
F335        F  0.40531610  0.24464691  0.46072832    -0.19700
F336        F  0.42683970  0.10635696  0.06422183    -0.19750
F337        F  0.39612728  0.09302755  0.52247067    -0.20070
F338        F  0.37525127  0.11855345  0.06383636    -0.22740
C339        C  0.40909420  0.44747951  0.00305166    -0.05580
C340        C  0.44012297  0.43834931  0.99485333     0.00350
C341        C  0.44506162  0.40722041  0.48251353    -0.08230
C342        C  0.41857805  0.38721002  0.47844784    -0.05600
C343        C  0.38801692  0.39533484  0.98924538     0.00330
C344        C  0.38302705  0.42666470  0.00129238    -0.08130
C345        C  0.35099683  0.43882979  0.01311332     0.62240
H346        H  0.40533586  0.47137675  0.01162612     0.12940
H347        H  0.42189478  0.36405299  0.46791902     0.12950
C348        C  0.47779310  0.39409796  0.47445688     0.62480
F349        F  0.35342720  0.46827063  0.02735002    -0.22690
F350        F  0.33830966  0.41812204  0.03537285    -0.20020
F351        F  0.33041146  0.44265559  0.48801071    -0.19700
F352        F  0.99619465  0.39278836  0.00151689    -0.19750
F353        F  0.99240535  0.41306861  0.45196009    -0.20070
F354        F  0.47634579  0.36354575  0.46237656    -0.22740
C355        C  0.36437183  0.36884068  0.49315789     0.03330
C356        C  0.37448419  0.33800906  0.00314488    -0.12820
C357        C  0.35228312  0.31625176  0.01511237     0.00830
C358        C  0.32205842  0.32832911  0.02223790    -0.11350
C359        C  0.30975610  0.35324331  0.50377032     0.03320
C360        C  0.33142395  0.37327178  0.48819805    -0.10770
H361        H  0.39904245  0.33066455  0.00172707     0.08920
H362        H  0.30655942  0.31487257  0.03745560     0.06440
H363        H  0.32272613  0.39173725  0.47270737     0.06290
C364        C  0.36857318  0.22606935  0.01484829     0.03330
C365        C  0.37379931  0.25882158  0.02153433    -0.12820
C366        C  0.35397181  0.28153790  0.00729763     0.00830
C367        C  0.33138718  0.27025420  0.98604723    -0.11350
C368        C  0.31815691  0.23992469  0.99041657     0.03320
C369        C  0.33824639  0.21663723  0.00326865    -0.10770
H370        H  0.39340706  0.26631239  0.03621184     0.08920
H371        H  0.31936061  0.28709518  0.97147983     0.06440
H372        H  0.33092115  0.19191832  0.00341607     0.06290
C373        C  0.22927456  0.22015964  0.47666440     0.03330
C374        C  0.26286390  0.21509462  0.47659946    -0.12820
C375        C  0.28248613  0.23839578  0.49019532     0.00830
C376        C  0.26720622  0.26475098  0.50293190    -0.11350
C377        C  0.23892211  0.27567793  0.49012076     0.03320
C378        C  0.21820138  0.25235951  0.47889638    -0.10770
H379        H  0.27317167  0.19355896  0.46738914     0.08920
H380        H  0.28020122  0.28030229  0.51768600     0.06440
H381        H  0.19390890  0.25898917  0.47395911     0.06290
C382        C  0.21978664  0.36193250  0.50801019     0.03330
C383        C  0.25233376  0.37035204  0.51096605    -0.12820
C384        C  0.27537714  0.35207919  0.49569688     0.00830
C385        C  0.26481215  0.32656634  0.47759118    -0.11350
C386        C  0.23644013  0.31114601  0.48600365     0.03320
C387        C  0.21224321  0.33026465  0.49863024    -0.10770
H388        H  0.25929768  0.39197810  0.52298231     0.08920
H389        H  0.28113820  0.31454686  0.46236563     0.06440
H390        H  0.18842820  0.32089017  0.50016666     0.06290
C391        C  0.36561090  0.03750778  0.82450902     0.03330
C392        C  0.33498191  0.04982996  0.83196764    -0.12820
C393        C  0.31577399  0.06094261  0.80716321     0.00830
C394        C  0.33039554  0.06313561  0.77733165    -0.11350
C395        C  0.35298194  0.04045637  0.76869487     0.03320
C396        C  0.37187132  0.02798405  0.79294316    -0.10770
H397        H  0.32673336  0.05137093  0.85621471     0.08920
H398        H  0.31953723  0.07704288  0.75922202     0.06440
H399        H  0.39170534  0.01261856  0.78740126     0.06290
C400        C  0.22502535  0.06947042  0.82168240     0.03330
C401        C  0.25823279  0.07324386  0.82779889    -0.12820
C402        C  0.28005712  0.05924576  0.80683366     0.00830
C403        C  0.26713825  0.04313661  0.78129828    -0.11350
C404        C  0.23871729  0.05291897  0.76794378     0.03320
C405        C  0.21579163  0.06387020  0.78938384    -0.10770
H406        H  0.26666442  0.08527478  0.84860542     0.08920
H407        H  0.28190046  0.02776836  0.76819279     0.06440
H408        H  0.19154783  0.06597703  0.78136282     0.06290
C409        C  0.22292926  0.03116307  0.68130767     0.03330
C410        C  0.21456111  0.04071347  0.71266216    -0.12820
C411        C  0.23812612  0.05365722  0.73219644     0.00830
C412        C  0.26690514  0.06177499  0.71744003    -0.11350
C413        C  0.27856957  0.04338463  0.69265631     0.03320
C414        C  0.25588264  0.02829222  0.67360382    -0.10770
H415        H  0.19048291  0.03940593  0.72133559     0.08920
H416        H  0.28267320  0.07747372  0.72933905     0.06440
H417        H  0.26339157  0.01625261  0.65225094     0.06290
C418        C  0.36934440  0.04700360  0.68226218     0.03330
C419        C  0.33654241  0.04845038  0.67365325    -0.12820
C420        C  0.31334085  0.03527706  0.69388365     0.00830
C421        C  0.32413366  0.02070306  0.72176832    -0.11350
C422        C  0.35321460  0.02983734  0.73498895     0.03320
C423        C  0.37695739  0.03971862  0.71413332    -0.10770
H424        H  0.32943006  0.05857039  0.65111616     0.08920
H425        H  0.30812393  0.00614734  0.73530759     0.06440
H426        H  0.40076808  0.04113208  0.72307298     0.06290
C427        C  0.05441174  0.22619318  0.82371442     0.03330
C428        C  0.05260011  0.25897341  0.83161096    -0.12820
C429        C  0.03996998  0.28039496  0.80941094     0.00830
C430        C  0.02666719  0.26719834  0.78210877    -0.11350
C431        C  0.03817095  0.23846777  0.76994448     0.03320
C432        C  0.05061702  0.21667490  0.79177993    -0.10770
H433        H  0.05989061  0.26723649  0.85472068     0.08920
H434        H  0.01114078  0.28133760  0.76803159     0.06440
H435        H  0.05604038  0.19262380  0.78444181     0.06290
C436        C  0.03520667  0.37098120  0.81989415     0.03330
C437        C  0.03442489  0.33838709  0.82920912    -0.12820
C438        C  0.04654471  0.31556209  0.80836056     0.00830
C439        C  0.06126231  0.32712081  0.78095945    -0.11350
C440        C  0.05108378  0.35548307  0.76672094     0.03320
C441        C  0.03937051  0.37896384  0.78727726    -0.10770
H442        H  0.02638861  0.33138168  0.85261692     0.08920
H443        H  0.07645330  0.31180628  0.76806474     0.06440
H444        H  0.03496295  0.40288491  0.77867184     0.06290
C445        C  0.03424399  0.22245222  0.68050726     0.03330
C446        C  0.03167738  0.21569511  0.71346619    -0.12820
C447        C  0.04429961  0.23757408  0.73495976     0.00830
C448        C  0.06023788  0.26371830  0.72204478    -0.11350
C449        C  0.05094107  0.27651864  0.69289385     0.03320
C450        C  0.03945636  0.25463810  0.67061612    -0.10770
H451        H  0.02150654  0.19351947  0.72187887     0.08920
H452        H  0.07548033  0.27714072  0.73674855     0.06440
H453        H  0.03589113  0.26196956  0.64626533     0.06290
C454        C  0.06298756  0.36618280  0.67674860     0.03330
C455        C  0.06016714  0.37598223  0.70890825    -0.12820
C456        C  0.04752798  0.35447454  0.73116617     0.00830
C457        C  0.03510424  0.32623077  0.71906472    -0.11390
C458        C  0.04764688  0.31230725  0.69181641     0.03320
C459        C  0.06026057  0.33328882  0.66906978    -0.10770
H460        H  0.06620432  0.39998961  0.71591273     0.08920
H461        H  0.02005259  0.31236245  0.73370164     0.06440
H462        H  0.06648315  0.32476393  0.64571810     0.06290
O463        O  0.49483265  0.45398652  0.49872210    -0.79930
O464        O  0.49296335  0.13580067  0.50515437    -0.81490
O465        O  0.45661817  0.04344803  0.55429496    -0.78500
O466        O  0.45320231  0.04548188  0.95199700    -0.76890
O467        O  0.49035869  0.04606030  0.91265013    -0.78680
O468        O  0.49519010  0.04261365  0.59208618    -0.79610
O469        O  0.45483377  0.09716624  0.50577898    -0.80940
O470        O  0.45681107  0.49239221  0.49984981    -0.81230
Eu471      Eu  0.48175692  0.04538619  0.50218272     2.39200
O472        O  0.01224138  0.07939407  0.96934251    -0.88740
O473        O  0.01439054  0.01227731  0.53329434    -0.92340
C474        C  0.46565447  0.46296293  0.49815945     1.02350
C475        C  0.46373746  0.12650309  0.50717329     1.02170
C476        C  0.46580727  0.04264873  0.58331060     1.02110
C477        C  0.46130720  0.04480207  0.92263919     0.99970
H478        H  0.00124936  0.08978124  0.54734833     0.29720
O479        O  0.01453335  0.07717970  0.53362729    -1.01120
H480        H  0.99960429  0.00125350  0.95566825     0.29750
O481        O  0.01313762  0.01424537  0.96869772    -1.03670
O482        O  0.09849918  0.13678036  0.49844001    -0.80890
O483        O  0.09767395  0.45466935  0.49887217    -0.80430
O484        O  0.04425998  0.09734282  0.59127960    -0.78870
O485        O  0.04415012  0.10007167  0.91056097    -0.82210
O486        O  0.04123585  0.49666212  0.90822211    -0.80060
O487        O  0.05013774  0.49173517  0.58987197    -0.78710
O488        O  0.13671399  0.04326193  0.55139430    -0.80230
O489        O  0.13449915  0.04919275  0.94580537    -0.82160
O490        O  0.09935061  0.04319362  0.59065233    -0.78900
O491        O  0.09538668  0.04925654  0.90863133    -0.81570
O492        O  0.04392770  0.13648981  0.55333896    -0.77310
O493        O  0.04889895  0.45405196  0.55077047    -0.77340
O494        O  0.04387515  0.45711964  0.94573037    -0.76980
O495        O  0.04444047  0.13789778  0.94944171    -0.80480
O496        O  0.13661993  0.09814309  0.49675918    -0.79900
O497        O  0.13571619  0.49333886  0.49974108    -0.78230
Eu498      Eu  0.04568982  0.11074258  0.50139268     2.39770
Eu499      Eu  0.04612837  0.48130543  0.49904375     2.39570
Eu500      Eu  0.04708717  0.04481973  0.56501517     2.38400
Eu501      Eu  0.04391038  0.04745489  0.93619406     2.39880
Eu502      Eu  0.11013747  0.04608458  0.49910165     2.39790
O503        O  0.07781614  0.01422198  0.96635710    -0.92650
O504        O  0.07910454  0.07831502  0.53289986    -0.91540
C505        C  0.12769442  0.12755514  0.49587865     1.02520
C506        C  0.12685019  0.46390981  0.49985365     1.01240
C507        C  0.04261642  0.12684742  0.58235181     1.00630
C508        C  0.04470093  0.12914939  0.92015949     1.02640
C509        C  0.04130004  0.46718801  0.91683831     1.01560
C510        C  0.05061665  0.46269870  0.58000869     1.00410
C511        C  0.12842155  0.04218589  0.58090329     1.00470
C512        C  0.12482704  0.05072815  0.91673784     1.03080
H513        H  0.09173123  0.00005661  0.54367620     0.30450
O514        O  0.07816453  0.01353681  0.53102071    -1.04810
H515        H  0.08943904  0.09216208  0.95503741     0.32500
O516        O  0.07665526  0.07857619  0.96847085    -1.07370
C517        C  0.03135974  0.39695195  0.63865865    -0.05580
C518        C  0.06151399  0.39030262  0.65117272     0.00350
C519        C  0.08837465  0.40693955  0.63973132    -0.08230
C520        C  0.08398971  0.43063684  0.61633449    -0.05600
C521        C  0.05370910  0.43741226  0.60409587     0.00330
C522        C  0.02697459  0.42028826  0.61511351    -0.08130
C523        C  0.49401108  0.42711766  0.60227897     0.62240
H524        H  0.51114983  0.38379142  0.64779049     0.12940
H525        H  0.10413683  0.44401373  0.60735179     0.12950
C526        C  0.12126432  0.39917585  0.65196348     0.62480
F527        F  0.47109146  0.40830583  0.61671180    -0.22690
F528        F  0.49331228  0.42119805  0.57011153    -0.20020
F529        F  0.48630087  0.45868046  0.60745775    -0.19700
F530        F  0.12774716  0.36733377  0.64689418    -0.19750
F531        F  0.12277563  0.40524985  0.68406847    -0.20070
F532        F  0.14445916  0.41705167  0.63681088    -0.22740
C533        C  0.01414920  0.19787726  0.63108041    -0.05580
C534        C  0.03480477  0.19622807  0.65699899     0.00350
C535        C  0.05815272  0.17169009  0.65814531    -0.08230
C536        C  0.05932514  0.14936785  0.63349002    -0.05600
C537        C  0.03907965  0.15132625  0.60734422     0.00330
C538        C  0.01586878  0.17588684  0.60606889    -0.08130
C539        C  0.99243503  0.17852714  0.57895060     0.62240
H540        H  0.99689803  0.21697767  0.63039039     0.12940
H541        H  0.07670725  0.13037582  0.63407214     0.12950
C542        C  0.08284549  0.16952457  0.68435877     0.62480
F543        F  0.96937197  0.20130157  0.58457112    -0.22690
F544        F  0.97733214  0.14962780  0.57493593    -0.20020
F545        F  0.00818867  0.18699403  0.55139774    -0.19700
F546        F  0.06860177  0.16011329  0.71239895    -0.19750
F547        F  0.09748048  0.19871697  0.68838143    -0.20070
F548        F  0.10631858  0.14753383  0.67747079    -0.22740
C549        C  0.00962423  0.41412586  0.85114849    -0.05580
C550        C  0.03666058  0.39592514  0.84445507     0.00350
C551        C  0.06540529  0.40193085  0.86090667    -0.08230
C552        C  0.06562067  0.42501029  0.88483288    -0.05600
C553        C  0.03866527  0.44312155  0.89165927     0.00330
C554        C  0.01027958  0.43820377  0.87430282    -0.08130
C555        C  0.48104006  0.45849443  0.87999330     0.62240
H556        H  0.48818985  0.40955077  0.83782302     0.12940
H557        H  0.08710997  0.42957709  0.89811023     0.12950
C558        C  0.09602984  0.38466068  0.85263598     0.62480
F559        F  0.45527483  0.44807162  0.86258758    -0.22690
F560        F  0.48739925  0.48961010  0.87126085    -0.20020
F561        F  0.47269480  0.45756630  0.91163559    -0.19700
F562        F  0.10279508  0.38881200  0.82080739    -0.19750
F563        F  0.09301908  0.35253201  0.85921239    -0.20070
F564        F  0.12160906  0.39609131  0.86969682    -0.22740
C565        C  0.07624077  0.15948821  0.88063376    -0.05580
C566        C  0.04685955  0.15428174  0.89568480     0.00350
C567        C  0.02036651  0.17293636  0.88714893    -0.08230
C568        C  0.02427723  0.19670721  0.86395328    -0.05600
C569        C  0.05366533  0.20192223  0.84900635     0.00330
C570        C  0.08018211  0.18320699  0.85731749    -0.08130
C571        C  0.11238037  0.18867866  0.84203246     0.62240
H572        H  0.09630448  0.14506252  0.88755234     0.12940
H573        H  0.50422661  0.21121279  0.85686371     0.12950
C574        C  0.48814006  0.16722955  0.90214741     0.62480
F575        F  0.13546794  0.16910388  0.85495281    -0.22690
F576        F  0.12161362  0.21995726  0.84639120    -0.20020
F577        F  0.11071772  0.18254022  0.80996806    -0.19700
F578        F  0.49010160  0.17220705  0.93432564    -0.19750
F579        F  0.47862291  0.13619624  0.89676775    -0.20070
F580        F  0.46520966  0.18747510  0.89001914    -0.22740
C581        C  0.38817720  0.03233695  0.62913493    -0.05580
C582        C  0.39462687  0.04889368  0.65724508     0.00350
C583        C  0.42527805  0.06296950  0.66095077    -0.08230
C584        C  0.44785253  0.05922360  0.63660317    -0.05600
C585        C  0.44091135  0.04325324  0.60834853     0.00330
C586        C  0.41050045  0.02921686  0.60463225    -0.08130
C587        C  0.40157136  0.00968561  0.57579632     0.62240
H588        H  0.36532303  0.02083776  0.62672695     0.12940
H589        H  0.47125328  0.06958061  0.63940324     0.12950
C590        C  0.43569816  0.08185453  0.68972183     0.62480
F591        F  0.39756467  0.02943726  0.54980412    -0.22690
F592        F  0.42499595  0.98750697  0.56957033    -0.20020
F593        F  0.37343737  0.99325876  0.58050472    -0.19700
F594        F  0.45096574  0.06175387  0.71084102    -0.19750
F595        F  0.41034156  0.09658631  0.70441043    -0.20070
F596        F  0.45693015  0.10557022  0.68103367    -0.22740
C597        C  0.20633127  0.04705657  0.62746117    -0.05580
C598        C  0.19881091  0.02991953  0.65525316     0.00350
C599        C  0.16817756  0.01592691  0.65786645    -0.08230
C600        C  0.14602429  0.02110638  0.63334090    -0.05600
C601        C  0.15363842  0.03836579  0.60558755     0.00330
C602        C  0.18461374  0.05140770  0.60254735    -0.08130
C603        C  0.19462037  0.07130990  0.57406563     0.62240
H604        H  0.22947686  0.05815508  0.62577273     0.12940
H605        H  0.12246445  0.01091709  0.63566827     0.12950
C606        C  0.15780137  0.99527218  0.68563320     0.62480
F607        F  0.22408248  0.08521858  0.57836649    -0.22690
F608        F  0.17283354  0.09544534  0.56913694    -0.20020
F609        F  0.19656670  0.05236915  0.54746251    -0.19700
F610        F  0.14041470  0.01341145  0.70668261    -0.19750
F611        F  0.18335880  0.98164722  0.70108289    -0.20070
F612        F  0.13870208  0.97070401  0.67521231    -0.22740
C613        C  0.16942622  0.07656851  0.84120312    -0.05580
C614        C  0.20079093  0.06724483  0.84805164     0.00350
C615        C  0.20636864  0.05095741  0.87745747    -0.08230
C616        C  0.18104364  0.04742062  0.89906081    -0.05600
C617        C  0.14960065  0.05533348  0.89142320     0.00330
C618        C  0.14348508  0.06836154  0.86080112    -0.08130
C619        C  0.11014235  0.07216432  0.84753611     0.62240
H620        H  0.16494377  0.08920759  0.81932441     0.12940
H621        H  0.18565654  0.03711366  0.92212967     0.12950
C622        C  0.23790329  0.03552422  0.88647070     0.62480
F623        F  0.11026088  0.08411932  0.81689993    -0.22690
F624        F  0.09273528  0.09274875  0.86587627    -0.20020
F625        F  0.09526357  0.04278831  0.84687777    -0.19700
F626        F  0.25956763  0.05851331  0.89524791    -0.19750
F627        F  0.24966644  0.01773988  0.86162487    -0.20070
F628        F  0.23463457  0.01488522  0.91195223    -0.22740
C629        C  0.38502990  0.02352804  0.87807282    -0.05580
C630        C  0.39122181  0.03753053  0.84853233     0.00350
C631        C  0.42005016  0.05467244  0.84375755    -0.08230
C632        C  0.44185420  0.05631555  0.86874466    -0.05600
C633        C  0.43580408  0.04235504  0.89840202     0.00330
C634        C  0.40664974  0.02569289  0.90331699    -0.08130
C635        C  0.39826103  0.00954379  0.93452928     0.62240
H636        H  0.36269435  0.01110479  0.88126606     0.12940
H637        H  0.46400484  0.06899928  0.86530834     0.12950
C638        C  0.42779099  0.07231065  0.81301366     0.62480
F639        F  0.37033649  0.99221938  0.93269475    -0.22690
F640        F  0.39427139  0.03211039  0.95792326    -0.20020
F641        F  0.42217236  0.98871438  0.94287064    -0.19700
F642        F  0.40249646  0.09126579  0.80402045    -0.19750
F643        F  0.43455254  0.05079570  0.78932241    -0.20070
F644        F  0.45402542  0.09194575  0.81611668    -0.22740
C645        C  0.20347112  0.41610180  0.99266098    -0.05580
C646        C  0.19557473  0.38786735  0.50909244     0.00350
C647        C  0.16504597  0.38524958  0.52315916    -0.08230
C648        C  0.14329819  0.41032019  0.51869397    -0.05600
C649        C  0.15148627  0.43865898  0.50253659     0.00330
C650        C  0.18247166  0.44183497  0.98969300    -0.08130
C651        C  0.19353581  0.47161816  0.97212435     0.62240
H652        H  0.22655458  0.41776066  0.98145685     0.12940
H653        H  0.11969725  0.40805118  0.52878123     0.12950
C654        C  0.15440439  0.35701233  0.54315621     0.62480
F655        F  0.22311824  0.46759705  0.45835144    -0.22690
F656        F  0.19588383  0.99676109  0.49300755    -0.20020
F657        F  0.17234461  0.97914365  0.94826710    -0.19700
F658        F  0.17980891  0.34115986  0.55662344    -0.19750
F659        F  0.13716806  0.33625135  0.02457782    -0.20070
F660        F  0.13508371  0.36712250  0.06774486    -0.22740
C661        C  0.18321355  0.14567646  0.00348947    -0.05580
C662        C  0.15319266  0.15187197  0.49061056     0.00350
C663        C  0.14942007  0.17909986  0.47088923    -0.08230
C664        C  0.17610369  0.19804280  0.46376389    -0.05600
C665        C  0.20570712  0.19327657  0.47839434     0.00330
C666        C  0.20923361  0.16636784  0.99907303    -0.08130
C667        C  0.23942879  0.15924691  0.01764052     0.62240
H668        H  0.18599061  0.12447552  0.01784070     0.12940
H669        H  0.17354184  0.21790201  0.44755835     0.12950
C670        C  0.11752270  0.18833870  0.45722033     0.62480
F671        F  0.23483164  0.13542820  0.53991966    -0.22690
F672        F  0.24935214  0.18593396  0.53389465    -0.20020
F673        F  0.26303040  0.14892250  0.99740013    -0.19700
F674        F  0.09704512  0.19682240  0.48139882    -0.19750
F675        F  0.10525082  0.16284129  0.94110331    -0.20070
F676        F  0.11962316  0.21381799  0.93635604    -0.22740
C677        C  0.44544269  0.18166779  0.99788448    -0.05580
C678        C  0.43907468  0.15168251  0.51128587     0.00350
C679        C  0.41042322  0.14732610  0.52880598    -0.08230
C680        C  0.38911336  0.17307582  0.53135087    -0.05600
C681        C  0.39486723  0.20246568  0.01638394     0.00330
C682        C  0.42354631  0.20679336  0.99894926    -0.08130
C683        C  0.43079670  0.23690308  0.97986583     0.62240
H684        H  0.46777440  0.18520661  0.98577256     0.12940
H685        H  0.36701809  0.17013355  0.54421712     0.12950
C686        C  0.40208497  0.11599815  0.54501111     0.62480
F687        F  0.45696901  0.23313193  0.96031557    -0.22690
F688        F  0.43730925  0.26185681  0.49999410    -0.20020
F689        F  0.40531388  0.24465128  0.96072306    -0.19700
F690        F  0.42683051  0.10634806  0.56422155    -0.19750
F691        F  0.39613422  0.09303127  0.02247447    -0.20070
F692        F  0.37524314  0.11854892  0.56383221    -0.22740
C693        C  0.40910464  0.44748337  0.50305220    -0.05580
C694        C  0.44013384  0.43835530  0.49485338     0.00350
C695        C  0.44504616  0.40721330  0.98251448    -0.08230
C696        C  0.41855835  0.38720460  0.97844902    -0.05600
C697        C  0.38803915  0.39533642  0.48924706     0.00330
C698        C  0.38304116  0.42666560  0.50129370    -0.08130
C699        C  0.35100789  0.43882790  0.51311367     0.62240
H700        H  0.40534327  0.47138044  0.51162593     0.12940
H701        H  0.42187422  0.36404690  0.96792152     0.12950
C702        C  0.47777816  0.39409029  0.97445824     0.62480
F703        F  0.35343497  0.46826842  0.52735176    -0.22690
F704        F  0.33832004  0.41811887  0.53537168    -0.20020
F705        F  0.33040041  0.44265684  0.98801045    -0.19700
F706        F  0.99619047  0.39278682  0.50151352    -0.19750
F707        F  0.99241158  0.41306740  0.95196219    -0.20070
F708        F  0.47633067  0.36353823  0.96237813    -0.22740
C709        C  0.36437964  0.86884386  0.99315592     0.03330
C710        C  0.37451122  0.83800541  0.50314252    -0.12820
C711        C  0.35230540  0.81624954  0.51510541     0.00830
C712        C  0.32208286  0.82833291  0.52222781    -0.11350
C713        C  0.30976468  0.85324396  0.00376865     0.03320
C714        C  0.33143071  0.87327359  0.98819662    -0.10770
H715        H  0.39906973  0.83066050  0.50172886     0.08920
H716        H  0.30657838  0.81488142  0.53744402     0.06440
H717        H  0.32273194  0.89173927  0.97270651     0.06290
C718        C  0.36858220  0.72606548  0.51486059     0.03330
C719        C  0.37380808  0.75881746  0.52154571    -0.12820
C720        C  0.35399044  0.78153354  0.50729573     0.00830
C721        C  0.33141359  0.77024712  0.48603669    -0.11350
C722        C  0.31818011  0.73991692  0.49040425     0.03320
C723        C  0.33826173  0.71663213  0.50326943    -0.10770
H724        H  0.39341199  0.76630816  0.53622853     0.08920
H725        H  0.31939360  0.78708605  0.47146145     0.06440
H726        H  0.33093600  0.69191330  0.50341672     0.06290
C727        C  0.22928022  0.72016151  0.97666486     0.03330
C728        C  0.26287180  0.71509588  0.97660043    -0.12820
C729        C  0.28249969  0.73839539  0.99019979     0.00830
C730        C  0.26721191  0.76475265  0.00293056    -0.11350
C731        C  0.23892781  0.77567962  0.99011842     0.03320
C732        C  0.21820682  0.75236132  0.97889576    -0.10770
H733        H  0.27317712  0.69355890  0.96739137     0.08920
H734        H  0.28020187  0.78030556  0.01768748     0.06440
H735        H  0.19391416  0.75899106  0.97395880     0.06290
C736        C  0.21979250  0.86193455  0.00800799     0.03330
C737        C  0.25233973  0.87035428  0.01096365    -0.12820
C738        C  0.27538378  0.85208070  0.99569527     0.00830
C739        C  0.26481849  0.82656817  0.97758886    -0.11350
C740        C  0.23644600  0.81114805  0.98600137     0.03320
C741        C  0.21224911  0.83026674  0.99862809    -0.10770
H742        H  0.25930342  0.89198047  0.02297978     0.08920
H743        H  0.28114572  0.81454777  0.96236414     0.06440
H744        H  0.18843412  0.82089222  0.00016461     0.06290
C745        C  0.36560756  0.53750408  0.32450964     0.03330
C746        C  0.33497926  0.54982771  0.33196835    -0.12820
C747        C  0.31577227  0.56094233  0.30716413     0.00830
C748        C  0.33039441  0.56313586  0.27733277    -0.11350
C749        C  0.35298017  0.54045596  0.26869556     0.03320
C750        C  0.37186787  0.52798109  0.29294370    -0.10770
H751        H  0.32673053  0.55136822  0.35621539     0.08920
H752        H  0.31953692  0.57704431  0.25922346     0.06440
H753        H  0.39170099  0.51261449  0.28740161     0.06290
C754        C  0.22502319  0.56946874  0.32168219     0.03330
C755        C  0.25823055  0.57324305  0.32779889    -0.12820
C756        C  0.28005547  0.55924521  0.30683400     0.00830
C757        C  0.26713734  0.54313580  0.28129852    -0.11350
C758        C  0.23871659  0.55291792  0.26794360     0.03320
C759        C  0.21579031  0.56386848  0.28938330    -0.10770
H760        H  0.26666181  0.58527453  0.34860518     0.08920
H761        H  0.28190004  0.52776778  0.26819327     0.06440
H762        H  0.19154681  0.56597475  0.28136139     0.06290
C763        C  0.22293009  0.53116277  0.18130730     0.03330
C764        C  0.21456148  0.54071275  0.21266173    -0.12820
C765        C  0.23812608  0.55365661  0.23219632     0.00830
C766        C  0.26690517  0.56177505  0.21744033    -0.11350
C767        C  0.27856997  0.54338560  0.19265604     0.03320
C768        C  0.25588349  0.52829266  0.17360357    -0.10770
H769        H  0.19048320  0.53940479  0.22133490     0.08920
H770        H  0.28267308  0.57747343  0.22933998     0.06440
H771        H  0.26339276  0.51625337  0.15225062     0.06290
C772        C  0.36934511  0.54700420  0.18226309     0.03330
C773        C  0.33654319  0.54845145  0.17365362    -0.12820
C774        C  0.31334114  0.53527810  0.19388354     0.00830
C775        C  0.32413324  0.52070367  0.22176811    -0.11350
C776        C  0.35321363  0.52983803  0.23498945     0.03320
C777        C  0.37695705  0.53971941  0.21413454    -0.10770
H778        H  0.32943128  0.55857169  0.15111649     0.08920
H779        H  0.30812309  0.50614795  0.23530689     0.06440
H780        H  0.40076731  0.54113257  0.22307512     0.06290
C781        C  0.05443684  0.72619012  0.32371076     0.03330
C782        C  0.05263572  0.75897110  0.33160715    -0.12820
C783        C  0.04000565  0.78039567  0.30940986     0.00830
C784        C  0.02669297  0.76720223  0.28211121    -0.11350
C785        C  0.03818663  0.73846854  0.26994461     0.03320
C786        C  0.05063209  0.71667260  0.29177731    -0.10770
H787        H  0.05993286  0.76723249  0.35471538     0.08920
H788        H  0.01116616  0.78134494  0.26803785     0.06440
H789        H  0.05604646  0.69261983  0.28443812     0.06290
C790        C  0.03524495  0.87098070  0.31989215     0.03330
C791        C  0.03446455  0.83838689  0.32920742    -0.12820
C792        C  0.04658544  0.81556182  0.30835966     0.00830
C793        C  0.06130291  0.82712008  0.28095781    -0.11350
C794        C  0.05112444  0.85548298  0.26671953     0.03320
C795        C  0.03940999  0.87896329  0.28727564    -0.10770
H796        H  0.02642643  0.83138145  0.35261459     0.08920
H797        H  0.07649364  0.81180512  0.26806250     0.06440
H798        H  0.03500044  0.90288385  0.27866982     0.06290
C799        C  0.03425000  0.72245322  0.18050745     0.03330
C800        C  0.03168370  0.71569695  0.21346661    -0.12820
C801        C  0.04431008  0.73757449  0.23495915     0.00830
C802        C  0.06025095  0.76371636  0.22204318    -0.11350
C803        C  0.05095430  0.77651772  0.19289279     0.03320
C804        C  0.03946607  0.75463841  0.17061562    -0.10770
H805        H  0.02151047  0.69352274  0.22188010     0.08920
H806        H  0.07549344  0.77713828  0.23674722     0.06440
H807        H  0.03590131  0.76196997  0.14626479     0.06290
C808        C  0.06301290  0.86617989  0.17674434     0.03330
C809        C  0.06020138  0.87597971  0.20890469    -0.12820
C810        C  0.04756343  0.85447409  0.23116535     0.00830
C811        C  0.03513223  0.82623274  0.21906660    -0.11390
C812        C  0.04766651  0.81230696  0.19181559     0.03320
C813        C  0.06027877  0.83328633  0.16906613    -0.10770
H814        H  0.06624359  0.89998624  0.21590778     0.08920
H815        H  0.02008117  0.81236735  0.23370673     0.06440
H816        H  0.06649436  0.82476041  0.14571300     0.06290
O817        O  0.49483970  0.95398809  0.99872111    -0.79930
O818        O  0.49296153  0.63577178  0.00516556    -0.81490
O819        O  0.45661873  0.54344777  0.05429523    -0.78500
O820        O  0.45319705  0.54547956  0.45199784    -0.76890
O821        O  0.49035371  0.54605754  0.41265109    -0.78680
O822        O  0.49519091  0.54261333  0.09208607    -0.79610
O823        O  0.45483405  0.59713492  0.00577921    -0.80940
O824        O  0.45681792  0.99239364  0.99984788    -0.81230
Eu825      Eu  0.48175788  0.54538160  0.00218247     2.39200
O826        O  0.01223507  0.57939949  0.46933812    -0.88740
O827        O  0.01439080  0.51227974  0.03329540    -0.92340
C828        C  0.46566146  0.96296433  0.99815821     1.02350
C829        C  0.46373658  0.62645352  0.00719229     1.02170
C830        C  0.46580796  0.54264863  0.08331080     1.02110
C831        C  0.46130227  0.54479895  0.42264011     0.99970
H832        H  0.00125225  0.58978315  0.04734819     0.29720
O833        O  0.01453632  0.57718158  0.03362698    -1.01120
H834        H  0.99959147  0.50124378  0.45565720     0.29750
O835        O  0.01313157  0.51424320  0.46869399    -1.03670
O836        O  0.09850300  0.63678252  0.99844096    -0.80890
O837        O  0.09767748  0.95466960  0.99886882    -0.80430
O838        O  0.04426223  0.59734368  0.09127998    -0.78870
O839        O  0.04415418  0.60007338  0.41056018    -0.82210
O840        O  0.04123796  0.99666013  0.40822301    -0.80060
O841        O  0.05014324  0.99173398  0.08987222    -0.78710
O842        O  0.13671576  0.54326432  0.05139319    -0.80230
O843        O  0.13449648  0.54919188  0.44580531    -0.82160
O844        O  0.09935287  0.54319421  0.09065166    -0.78900
O845        O  0.09538510  0.54925684  0.40863146    -0.81570
O846        O  0.04393084  0.63649101  0.05333964    -0.77310
O847        O  0.04890579  0.95405089  0.05076906    -0.77340
O848        O  0.04387928  0.95711700  0.44573059    -0.76980
O849        O  0.04444319  0.63789896  0.44943982    -0.80480
O850        O  0.13662389  0.59814579  0.99675971    -0.79900
O851        O  0.13572061  0.99333938  0.99973865    -0.78230
Eu852      Eu  0.04569287  0.61074517  0.00139286     2.39770
Eu853      Eu  0.04612863  0.98130741  0.99904037     2.39570
Eu854      Eu  0.04708926  0.54482125  0.06501537     2.38400
Eu855      Eu  0.04391105  0.54745905  0.43619108     2.39880
Eu856      Eu  0.11013813  0.54609016  0.99910094     2.39790
O857        O  0.07781636  0.51422012  0.46635473    -0.92650
O858        O  0.07910658  0.57831851  0.03290133    -0.91540
C859        C  0.12769840  0.62755762  0.99587972     1.02520
C860        C  0.12685442  0.96391013  0.99985118     1.01240
C861        C  0.04261915  0.62684830  0.08235236     1.00630
C862        C  0.04470475  0.62915057  0.42015821     1.02640
C863        C  0.04130497  0.96718596  0.41683868     1.01560
C864        C  0.05062516  0.96269740  0.08000801     1.00410
C865        C  0.12842366  0.54218690  0.08090228     1.00470
C866        C  0.12482480  0.55072637  0.41673790     1.03080
H867        H  0.09173243  0.50005975  0.04367428     0.30450
O868        O  0.07816566  0.51354043  0.03101918    -1.04810
H869        H  0.08944338  0.59216769  0.45503164     0.32500
O870        O  0.07665574  0.57857938  0.46846846    -1.07370
C871        C  0.03137768  0.89695407  0.13866462    -0.05580
C872        C  0.06153501  0.89029999  0.15116894     0.00350
C873        C  0.08839456  0.90693300  0.13971910    -0.08230
C874        C  0.08400568  0.93063088  0.11632358    -0.05600
C875        C  0.05372203  0.93741094  0.10409487     0.00330
C876        C  0.02698850  0.92029117  0.11512110    -0.08130
C877        C  0.49401732  0.92712919  0.10228940     0.62240
H878        H  0.51115719  0.88380032  0.14779822     0.12940
H879        H  0.10415192  0.94400456  0.10733416     0.12950
C880        C  0.12128700  0.89916442  0.15194085     0.62480
F881        F  0.47109732  0.90832045  0.11672561    -0.22690
F882        F  0.49331239  0.92121043  0.07012193    -0.20020
F883        F  0.48631265  0.95869303  0.10747011    -0.19700
F884        F  0.12776472  0.86732219  0.14686618    -0.19750
F885        F  0.12280848  0.90523459  0.18404607    -0.20070
F886        F  0.14447938  0.91703953  0.13678360    -0.22740
C887        C  0.01415485  0.69787971  0.13107998    -0.05580
C888        C  0.03480877  0.69622843  0.15699981     0.00350
C889        C  0.05815394  0.67168776  0.15814769    -0.08230
C890        C  0.05932592  0.64936590  0.13349214    -0.05600
C891        C  0.03908254  0.65132676  0.10734493     0.00330
C892        C  0.01587374  0.67588921  0.10606850    -0.08130
C893        C  0.99244132  0.67853130  0.07894916     0.62240
H894        H  0.99690561  0.71698183  0.13038892     0.12940
H895        H  0.07670614  0.63037215  0.13407518     0.12950
C896        C  0.08284437  0.66951862  0.18436311     0.62480
F897        F  0.96937963  0.70130729  0.08456886    -0.22690
F898        F  0.97733654  0.64963304  0.07493367    -0.20020
F899        F  0.00819662  0.68699727  0.05139696    -0.19700
F900        F  0.06859733  0.66010790  0.21240180    -0.19750
F901        F  0.09748236  0.69870918  0.18838790    -0.20070
F902        F  0.10631557  0.64752544  0.17747641    -0.22740
C903        C  0.00964977  0.91412157  0.35114131    -0.05580
C904        C  0.03669038  0.89592518  0.34445287     0.00350
C905        C  0.06543084  0.90193497  0.36091014    -0.08230
C906        C  0.06563765  0.92501342  0.38483716    -0.05600
C907        C  0.03867796  0.94312001  0.39165885     0.00330
C908        C  0.01029663  0.93819894  0.37429645    -0.08130
C909        C  0.48104846  0.95849211  0.37998657     0.62240
H910        H  0.48820506  0.90954804  0.33781783     0.12940
H911        H  0.08712361  0.92958324  0.39811885     0.12950
C912        C  0.09605992  0.88467044  0.35264455     0.62480
F913        F  0.45528586  0.94806840  0.36257754    -0.22690
F914        F  0.48740776  0.98960798  0.37125480    -0.20020
F915        F  0.47269903  0.95756392  0.41162780    -0.19700
F916        F  0.10283041  0.88882434  0.32081737    -0.19750
F917        F  0.09305341  0.85254099  0.35921896    -0.20070
F918        F  0.12163392  0.89610476  0.36971073    -0.22740
C919        C  0.07624817  0.65947346  0.38062422    -0.05580
C920        C  0.04686850  0.65428207  0.39568330     0.00350
C921        C  0.02038329  0.67295209  0.38715625    -0.08230
C922        C  0.02429975  0.69672066  0.36395926    -0.05600
C923        C  0.05368591  0.70191971  0.34900325     0.00330
C924        C  0.08019521  0.68319014  0.35730663    -0.08130
C925        C  0.11239212  0.68864501  0.34201294     0.62240
H926        H  0.09630681  0.64503881  0.38753924     0.12940
H927        H  0.50423776  0.71122237  0.35686867     0.12950
C928        C  0.48814548  0.66724395  0.40215466     0.62480
F929        F  0.13547316  0.66905870  0.35492767    -0.22690
F930        F  0.12164246  0.71991902  0.34636849    -0.20020
F931        F  0.11071794  0.68250661  0.30994919    -0.19700
F932        F  0.49011325  0.67222365  0.43433200    -0.19750
F933        F  0.47861946  0.63621265  0.39677889    -0.20070
F934        F  0.46521857  0.68749453  0.39002810    -0.22740
C935        C  0.38817774  0.53233812  0.12913539    -0.05580
C936        C  0.39462815  0.54889352  0.15724621     0.00350
C937        C  0.42528010  0.56296782  0.16095221    -0.08230
C938        C  0.44785412  0.55922221  0.13660410    -0.05600
C939        C  0.44091214  0.54325326  0.10834890     0.00330
C940        C  0.41050067  0.52921813  0.10463236    -0.08130
C941        C  0.40157058  0.50968827  0.07579573     0.62240
H942        H  0.36532316  0.52083985  0.12672703     0.12940
H943        H  0.47125537  0.56957801  0.13940434     0.12950
C944        C  0.43570173  0.58185043  0.18972432     0.62480
F945        F  0.39756492  0.52944093  0.04980412    -0.22690
F946        F  0.42499407  0.48750864  0.06956911    -0.20020
F947        F  0.37343572  0.49326268  0.08050338    -0.19700
F948        F  0.45096600  0.56174702  0.21084333    -0.19750
F949        F  0.41034642  0.59658500  0.20441234    -0.20070
F950        F  0.45693722  0.60556366  0.18103802    -0.22740
C951        C  0.20633270  0.54705734  0.12746116    -0.05580
C952        C  0.19881218  0.52991943  0.15525258     0.00350
C953        C  0.16817908  0.51592623  0.15786516    -0.08230
C954        C  0.14602624  0.52110569  0.13333926    -0.05600
C955        C  0.15364052  0.53836594  0.10558641     0.00330
C956        C  0.18461555  0.55140868  0.10254711    -0.08130
C957        C  0.19462217  0.57131201  0.07406622     0.62240
H958        H  0.22947806  0.55815642  0.12577341     0.12940
H959        H  0.12246653  0.51091598  0.13566605     0.12950
C960        C  0.15780265  0.49527115  0.18563159     0.62480
F961        F  0.22408391  0.58522122  0.07836798    -0.22690
F962        F  0.17283489  0.59544713  0.06913801    -0.20020
F963        F  0.19656925  0.55237212  0.04746256    -0.19700
F964        F  0.14041529  0.51341001  0.20668080    -0.19750
F965        F  0.18335994  0.48164645  0.20108176    -0.20070
F966        F  0.13870395  0.47070276  0.17521015    -0.22740
C967        C  0.16942220  0.57656102  0.34120082    -0.05580
C968        C  0.20078821  0.56724267  0.34805126     0.00350
C969        C  0.20636697  0.55095932  0.37745923    -0.08230
C970        C  0.18104192  0.54742291  0.39906260    -0.05600
C971        C  0.14959803  0.55533006  0.39142295     0.00330
C972        C  0.14348146  0.56835137  0.36079826    -0.08130
C973        C  0.11013887  0.57214177  0.34752902     0.62240
H974        H  0.16493826  0.58919754  0.31932104     0.12940
H975        H  0.18565574  0.53712025  0.42213316     0.12950
C976        C  0.23790266  0.53552981  0.38647524     0.62480
F977        F  0.11025760  0.58408613  0.31688880    -0.22690
F978        F  0.09272454  0.59272829  0.36586013    -0.20020
F979        F  0.09526732  0.54276182  0.34687916    -0.19700
F980        F  0.25956442  0.55852167  0.39525166    -0.19750
F981        F  0.24966865  0.51774431  0.36163158    -0.20070
F982        F  0.23463458  0.51489259  0.41195835    -0.22740
C983        C  0.38502622  0.52352325  0.37807304    -0.05580
C984        C  0.39121845  0.53752586  0.34853269     0.00350
C985        C  0.42004710  0.55466727  0.34375787    -0.08230
C986        C  0.44185042  0.55631106  0.36874539    -0.05600
C987        C  0.43579980  0.54235086  0.39840273     0.00330
C988        C  0.40664593  0.52568786  0.40331726    -0.08130
C989        C  0.39825794  0.50953718  0.43452890     0.62240
H990        H  0.36269063  0.51110001  0.38126607     0.12940
H991        H  0.46400097  0.56899501  0.36530938     0.12950
C992        C  0.42778922  0.57230403  0.31301344     0.62480
F993        F  0.37033419  0.49221154  0.43269364    -0.22690
F994        F  0.39426728  0.53210260  0.45792382    -0.20020
F995        F  0.42217029  0.48870854  0.44286927    -0.19700
F996        F  0.40249566  0.59125986  0.30401900    -0.19750
F997        F  0.43455046  0.55078789  0.28932317    -0.20070
F998        F  0.45402439  0.59193818  0.31611612    -0.22740
C999        C  0.20349162  0.91610830  0.49266312    -0.05580
C1000       C  0.19558035  0.88786910  0.00909032     0.00350
C1001       C  0.16505184  0.88525114  0.02315758    -0.08230
C1002       C  0.14330378  0.91032143  0.01869251    -0.05600
C1003       C  0.15149116  0.93865978  0.00253428     0.00330
C1004       C  0.18248231  0.94183386  0.48969321    -0.08130
C1005       C  0.19353886  0.97162127  0.47212812     0.62240
H1006       H  0.22657487  0.91777661  0.48146014     0.12940
H1007       H  0.11970307  0.90805249  0.02878032     0.12950
C1008       C  0.15441073  0.85701378  0.04315465     0.62480
F1009       F  0.22312108  0.96759700  0.95834542    -0.22690
F1010       F  0.19588611  0.49676129  0.99299945    -0.20020
F1011       F  0.17234236  0.47914462  0.44827138    -0.19700
F1012       F  0.17981554  0.84116207  0.05662220    -0.19750
F1013       F  0.13722709  0.83622254  0.52454715    -0.20070
F1014       F  0.13508345  0.86709082  0.56771200    -0.22740
C1015       C  0.18321440  0.64568369  0.50348540    -0.05580
C1016       C  0.15319679  0.65187434  0.99061214     0.00350
C1017       C  0.14942431  0.67910211  0.97089083    -0.08230
C1018       C  0.17610806  0.69804478  0.96376515    -0.05600
C1019       C  0.20571160  0.69327871  0.97839575     0.00330
C1020       C  0.20923465  0.66637687  0.49907353    -0.08130
C1021       C  0.23942785  0.65925196  0.51764207     0.62240
H1022       H  0.18599133  0.62448062  0.51783360     0.12940
H1023       H  0.17354625  0.71790370  0.94755927     0.12950
C1024       C  0.11752673  0.68834125  0.95722266     0.62480
F1025       F  0.23483418  0.63543351  0.03992472    -0.22690
F1026       F  0.24935466  0.68593897  0.03389712    -0.20020
F1027       F  0.26302838  0.64892355  0.49740265    -0.19700
F1028       F  0.09704968  0.69682449  0.98140177    -0.19750
F1029       F  0.10526506  0.66283532  0.44109118    -0.20070
F1030       F  0.11962711  0.71381458  0.43634038    -0.22740
C1031       C  0.44544272  0.68166320  0.49788581    -0.05580
C1032       C  0.43908327  0.65158506  0.01129710     0.00350
C1033       C  0.41042335  0.64732175  0.02879992    -0.08230
C1034       C  0.38917477  0.67313265  0.03126684    -0.05600
C1035       C  0.39487434  0.70246359  0.51639547     0.00330
C1036       C  0.42354929  0.70679019  0.49895498    -0.08130
C1037       C  0.43079702  0.73690029  0.47987058     0.62240
H1038       H  0.46777304  0.68520110  0.48577143     0.12940
H1039       H  0.36705331  0.67024386  0.04410788     0.12950
C1040       C  0.40207444  0.61600547  0.04501532     0.62480
F1041       F  0.45696849  0.73313058  0.46031910    -0.22690
F1042       F  0.44175000  0.76058542  0.00017800    -0.20020
F1043       F  0.40531274  0.74464696  0.46072894    -0.19700
F1044       F  0.42682827  0.60635202  0.06422118    -0.19750
F1045       F  0.39613010  0.59302823  0.52247409    -0.20070
F1046       F  0.37523930  0.61855922  0.06383352    -0.22740
C1047       C  0.40911161  0.94748487  0.00305085    -0.05580
C1048       C  0.44014090  0.93835652  0.99485259     0.00350
C1049       C  0.44505933  0.90721818  0.48251252    -0.08230
C1050       C  0.41857558  0.88720811  0.47844670    -0.05600
C1051       C  0.38804595  0.89533879  0.98924565     0.00330
C1052       C  0.38304804  0.92666738  0.00129247    -0.08130
C1053       C  0.35101480  0.93882982  0.01311200     0.62240
H1054       H  0.40535020  0.97138214  0.01162393     0.12940
H1055       H  0.42189199  0.86405106  0.46791777     0.12950
C1056       C  0.47779067  0.89409543  0.47445581     0.62480
F1057       F  0.35344220  0.96827013  0.02735037    -0.22690
F1058       F  0.33832630  0.91812084  0.03536970    -0.20020
F1059       F  0.33040900  0.94265331  0.48801204    -0.19700
F1060       F  0.99619593  0.89278625  0.00152066    -0.19750
F1061       F  0.99240838  0.91306627  0.45196441    -0.20070
F1062       F  0.47634299  0.86354345  0.46237494    -0.22740
C1063       C  0.36436975  0.86883904  0.49315777     0.03330
C1064       C  0.37452864  0.83801258  0.00313846    -0.12820
C1065       C  0.35233394  0.81625321  0.01509741     0.00830
C1066       C  0.32210020  0.82833132  0.02222003    -0.11350
C1067       C  0.30975418  0.85324186  0.50377061     0.03320
C1068       C  0.33142192  0.87326999  0.48819781    -0.10770
H1069       H  0.39908770  0.83067067  0.00172461     0.08920
H1070       H  0.30659671  0.81487917  0.03743712     0.06440
H1071       H  0.32272410  0.89173520  0.47270678     0.06290
C1072       C  0.36878711  0.72611038  0.01472093     0.03330
C1073       C  0.37415652  0.75886481  0.02123036    -0.12820
C1074       C  0.35404393  0.78153504  0.00729947     0.00830
C1075       C  0.33142138  0.77024952  0.98608437    -0.11350
C1076       C  0.31821198  0.73992072  0.99043533     0.03320
C1077       C  0.33833769  0.71666320  0.00331191    -0.10770
H1078       H  0.39424389  0.76639997  0.03524105     0.08920
H1079       H  0.31938802  0.78708791  0.97151891     0.06440
H1080       H  0.33099295  0.69194800  0.00347047     0.06290
C1081       C  0.22927362  0.72015808  0.47666449     0.03330
C1082       C  0.26286299  0.71509337  0.47660004    -0.12820
C1083       C  0.28248476  0.73839433  0.49019687     0.00830
C1084       C  0.26720445  0.76474930  0.50293356    -0.11350
C1085       C  0.23892046  0.77567618  0.49012200     0.03320
C1086       C  0.21820019  0.75235782  0.47889678    -0.10770
H1087       H  0.27317114  0.69355809  0.46738930     0.08920
H1088       H  0.28019917  0.78030066  0.51768795     0.06440
H1089       H  0.19390779  0.75898746  0.47395907     0.06290
C1090       C  0.21978503  0.86193088  0.50801065     0.03330
C1091       C  0.25233212  0.87035027  0.51096658    -0.12820
C1092       C  0.27537535  0.85207749  0.49569726     0.00830
C1093       C  0.26481036  0.82656444  0.47759183    -0.11350
C1094       C  0.23643841  0.81114419  0.48600457     0.03320
C1095       C  0.21224153  0.83026294  0.49863108    -0.10770
H1096       H  0.25929611  0.89197639  0.52298268     0.08920
H1097       H  0.28113628  0.81454491  0.46236617     0.06440
H1098       H  0.18842654  0.82088848  0.50016761     0.06290
C1099       C  0.36560738  0.53750675  0.82450854     0.03330
C1100       C  0.33497975  0.54983211  0.83196681    -0.12820
C1101       C  0.31577352  0.56094730  0.80716230     0.00830
C1102       C  0.33039582  0.56313954  0.77733091    -0.11350
C1103       C  0.35298008  0.54045795  0.76869426     0.03320
C1104       C  0.37186745  0.52798299  0.79294273    -0.10770
H1105       H  0.32673089  0.55137331  0.85621376     0.08920
H1106       H  0.31953876  0.57704792  0.75922118     0.06440
H1107       H  0.39170002  0.51261555  0.78740099     0.06290
C1108       C  0.22502472  0.56947427  0.82168038     0.03330
C1109       C  0.25823202  0.57324866  0.82779708    -0.12820
C1110       C  0.28005678  0.55925109  0.80683193     0.00830
C1111       C  0.26713852  0.54314187  0.78129647    -0.11350
C1112       C  0.23871784  0.55292409  0.76794167     0.03320
C1113       C  0.21579159  0.56387435  0.78938153    -0.10770
H1114       H  0.26666324  0.58527953  0.84860378     0.08920
H1115       H  0.28190097  0.52777361  0.76819133     0.06440
H1116       H  0.19154791  0.56598035  0.78136001     0.06290
C1117       C  0.22292858  0.53116628  0.68130680     0.03330
C1118       C  0.21456131  0.54071806  0.71266097    -0.12820
C1119       C  0.23812687  0.55366156  0.73219445     0.00830
C1120       C  0.26690605  0.56177818  0.71743763    -0.11350
C1121       C  0.27856961  0.54338721  0.69265393     0.03320
C1122       C  0.25588187  0.52829461  0.67360235    -0.10770
H1123       H  0.19048333  0.53941187  0.72133495     0.08920
H1124       H  0.28267518  0.57747587  0.72933668     0.06440
H1125       H  0.26339012  0.51625406  0.65224977     0.06290
C1126       C  0.36934523  0.54700390  0.68226182     0.03330
C1127       C  0.33654336  0.54845113  0.67365181    -0.12820
C1128       C  0.31334072  0.53527847  0.69388165     0.00830
C1129       C  0.32413236  0.52070498  0.72176701    -0.11350
C1130       C  0.35321292  0.52983915  0.73498835     0.03320
C1131       C  0.37695660  0.53971954  0.71413344    -0.10770
H1132       H  0.32943191  0.55857106  0.65111440     0.08920
H1133       H  0.30812189  0.50614972  0.73530598     0.06440
H1134       H  0.40076667  0.54113228  0.72307435     0.06290
C1135       C  0.05443357  0.72619164  0.82371004     0.03330
C1136       C  0.05263086  0.75897246  0.83160624    -0.12820
C1137       C  0.04000074  0.78039639  0.80940849     0.00830
C1138       C  0.02668950  0.76720242  0.78210933    -0.11350
C1139       C  0.03818456  0.73846904  0.76994328     0.03320
C1140       C  0.05063013  0.71667371  0.79177656    -0.10770
H1141       H  0.05992721  0.76723428  0.85471457     0.08920
H1142       H  0.01116270  0.78134456  0.76803534     0.06440
H1143       H  0.05604598  0.69262116  0.78443770     0.06290
C1144       C  0.03524108  0.87098146  0.81989066     0.03330
C1145       C  0.03445955  0.83838765  0.82920578    -0.12820
C1146       C  0.04658035  0.81556246  0.80835819     0.00830
C1147       C  0.06129876  0.82712046  0.78095683    -0.11350
C1148       C  0.05112116  0.85548350  0.76671834     0.03320
C1149       C  0.03940690  0.87896409  0.78727424    -0.10770
H1150       H  0.02642094  0.83138232  0.85261282     0.08920
H1151       H  0.07648926  0.81180511  0.76806179     0.06440
H1152       H  0.03499822  0.90288482  0.77866843     0.06290
C1153       C  0.03424929  0.72245381  0.68050608     0.03330
C1154       C  0.03168258  0.71569758  0.71346522    -0.12820
C1155       C  0.04430910  0.73757484  0.73495798     0.00830
C1156       C  0.06025054  0.76371654  0.72204225    -0.11350
C1157       C  0.05095443  0.77651803  0.69289167     0.03320
C1158       C  0.03946606  0.75463892  0.67061438    -0.10770
H1159       H  0.02150871  0.69352361  0.72187857     0.08920
H1160       H  0.07549321  0.77713817  0.73674645     0.06440
H1161       H  0.03590149  0.76197061  0.64626356     0.06290
C1162       C  0.06301197  0.86618052  0.67674351     0.03330
C1163       C  0.06019928  0.87598037  0.70890375    -0.12820
C1164       C  0.04756119  0.85447453  0.73116407     0.00830
C1165       C  0.03513101  0.82623284  0.71906505    -0.11390
C1166       C  0.04766639  0.81230725  0.69181449     0.03320
C1167       C  0.06027881  0.83328685  0.66906532    -0.10770
H1168       H  0.06624064  0.89998709  0.71590695     0.08920
H1169       H  0.02007995  0.81236708  0.73370482     0.06440
H1170       H  0.06649517  0.82476103  0.64571235     0.06290
O1171       O  0.49483074  0.95398357  0.49872218    -0.79930
O1172       O  0.49296459  0.63580353  0.50515439    -0.81490
O1173       O  0.45661954  0.54345020  0.55429423    -0.78500
O1174       O  0.45319535  0.54547714  0.95199844    -0.76890
O1175       O  0.49035216  0.54605568  0.91265194    -0.78680
O1176       O  0.49519170  0.54261549  0.59208520    -0.79610
O1177       O  0.45483534  0.59716872  0.50577898    -0.80940
O1178       O  0.45680941  0.99238957  0.49984971    -0.81230
Eu1179     Eu  0.48175851  0.54538898  0.50218210     2.39200
O1180       O  0.01223968  0.57940204  0.96933929    -0.88740
O1181       O  0.01438852  0.51227725  0.53329352    -0.92340
C1182       C  0.46565263  0.96296026  0.49815924     1.02350
C1183       C  0.46373880  0.62650560  0.50717354     1.02170
C1184       C  0.46580879  0.54265047  0.58330981     1.02110
C1185       C  0.46130065  0.54479745  0.92264073     0.99970
H1186       H  0.00124723  0.58978116  0.54734738     0.29720
O1187       O  0.01453124  0.57717941  0.53362646    -1.01120
H1188       H  0.99959248  0.50124815  0.95565600     0.29750
O1189       O  0.01313325  0.51424765  0.96869232    -1.03670
O1190       O  0.09849787  0.63677956  0.49843970    -0.80890
O1191       O  0.09767526  0.95467021  0.49887107    -0.80430
O1192       O  0.04425738  0.59734291  0.59127894    -0.78870
O1193       O  0.04415704  0.60007669  0.91056017    -0.82210
O1194       O  0.04123934  0.99665864  0.90822209    -0.80060
O1195       O  0.05014336  0.99173492  0.58987160    -0.78710
O1196       O  0.13671151  0.54326203  0.55139492    -0.80230
O1197       O  0.13449942  0.54919658  0.94580394    -0.82160
O1198       O  0.09934793  0.54319396  0.59065266    -0.78900
O1199       O  0.09538807  0.54925820  0.90863004    -0.81570
O1200       O  0.04392613  0.63648975  0.55333826    -0.77310
O1201       O  0.04890461  0.95405198  0.55076980    -0.77340
O1202       O  0.04388073  0.95711545  0.94572975    -0.76980
O1203       O  0.04444770  0.63790183  0.94944038    -0.80480
O1204       O  0.13661837  0.59814206  0.49675943    -0.79900
O1205       O  0.13571786  0.99333939  0.49974041    -0.78230
Eu1206     Eu  0.04568840  0.61074201  0.50139225     2.39770
Eu1207     Eu  0.04612998  0.98130610  0.49904372     2.39570
Eu1208     Eu  0.04708469  0.54481965  0.56501486     2.38400
Eu1209     Eu  0.04391410  0.54746251  0.93618989     2.39880
Eu1210     Eu  0.11013562  0.54608380  0.49910221     2.39790
O1211       O  0.07781913  0.51422482  0.96635400    -0.92650
O1212       O  0.07910267  0.57831462  0.53289996    -0.91540
C1213       C  0.12769306  0.62755415  0.49587855     1.02520
C1214       C  0.12685150  0.96391042  0.49985283     1.01240
C1215       C  0.04261443  0.62684754  0.58235113     1.00630
C1216       C  0.04470839  0.62915361  0.92015870     1.02640
C1217       C  0.04130471  0.96718463  0.91683811     1.01560
C1218       C  0.05062370  0.96269856  0.58000797     1.00410
C1219       C  0.12841895  0.54218646  0.58090383     1.00470
C1220       C  0.12482771  0.55072916  0.91673645     1.03080
H1221       H  0.09172890  0.50005572  0.54367725     0.30450
O1222       O  0.07816257  0.51353598  0.53102135    -1.04810
H1223       H  0.08944679  0.59217285  0.95502976     0.32500
O1224       O  0.07665894  0.57858441  0.96846642    -1.07370
C1225       C  0.03137682  0.89695295  0.63866234    -0.05580
C1226       C  0.06153392  0.89030055  0.65116805     0.00350
C1227       C  0.08839299  0.90693537  0.63971974    -0.08230
C1228       C  0.08400375  0.93063351  0.61632455    -0.05600
C1229       C  0.05372034  0.93741200  0.60409445     0.00330
C1230       C  0.02698733  0.92029017  0.61511893    -0.08130
C1231       C  0.49400790  0.92711382  0.60227852     0.62240
H1232       H  0.51114571  0.88378945  0.64779220     0.12940
H1233       H  0.10414966  0.94400856  0.60733637     0.12950
C1234       C  0.12128540  0.89916828  0.65194254     0.62480
F1235       F  0.47108806  0.90830214  0.61671121    -0.22690
F1236       F  0.49331061  0.92119277  0.57011132    -0.20020
F1237       F  0.48629677  0.95867669  0.60745559    -0.19700
F1238       F  0.12776491  0.86732644  0.64686766    -0.19750
F1239       F  0.12280550  0.90523809  0.68404789    -0.20070
F1240       F  0.14447740  0.91704475  0.63678630    -0.22740
C1241       C  0.01415325  0.69788104  0.63107846    -0.05580
C1242       C  0.03480711  0.69622903  0.65699830     0.00350
C1243       C  0.05815128  0.67168743  0.65814617    -0.08230
C1244       C  0.05932212  0.64936522  0.63349081    -0.05600
C1245       C  0.03907869  0.65132657  0.60734363     0.00330
C1246       C  0.01587111  0.67589028  0.60606705    -0.08130
C1247       C  0.99243884  0.67853352  0.57894772     0.62240
H1248       H  0.99690485  0.71698392  0.63038735     0.12940
H1249       H  0.07670156  0.63037076  0.63407399     0.12950
C1250       C  0.08284189  0.66951765  0.68436138     0.62480
F1251       F  0.96937838  0.70131084  0.58456727    -0.22690
F1252       F  0.97733247  0.64963607  0.57493248    -0.20020
F1253       F  0.00819458  0.68699842  0.55139547    -0.19700
F1254       F  0.06859483  0.66010763  0.71240029    -0.19750
F1255       F  0.09748090  0.69870775  0.68838583    -0.20070
F1256       F  0.10631227  0.64752364  0.67747459    -0.22740
C1257       C  0.00964697  0.91412218  0.85114045    -0.05580
C1258       C  0.03668721  0.89592557  0.84445159     0.00350
C1259       C  0.06542771  0.90193420  0.86090916    -0.08230
C1260       C  0.06563502  0.92501208  0.88483660    -0.05600
C1261       C  0.03867580  0.94311894  0.89165872     0.00330
C1262       C  0.01029412  0.93819872  0.87429638    -0.08130
C1263       C  0.48104604  0.95850001  0.87999429     0.62240
H1264       H  0.48819268  0.90955411  0.83782624     0.12940
H1265       H  0.08712112  0.92958126  0.89811830     0.12950
C1266       C  0.09605632  0.88466890  0.85264355     0.62480
F1267       F  0.45528021  0.94807805  0.86258895    -0.22690
F1268       F  0.48740671  0.98961513  0.87126096    -0.20020
F1269       F  0.47270098  0.95757298  0.91163670    -0.19700
F1270       F  0.10282723  0.88882319  0.82081652    -0.19750
F1271       F  0.09304876  0.85253941  0.85921735    -0.20070
F1272       F  0.12163051  0.89610208  0.86971021    -0.22740
C1273       C  0.07625038  0.65947911  0.88062578    -0.05580
C1274       C  0.04687079  0.65428505  0.89568404     0.00350
C1275       C  0.02038368  0.67295151  0.88715554    -0.08230
C1276       C  0.02429815  0.69671974  0.86395795    -0.05600
C1277       C  0.05368425  0.70192155  0.84900273     0.00330
C1278       C  0.08019545  0.68319539  0.85730756    -0.08130
C1279       C  0.11239213  0.68865332  0.84201448     0.62240
H1280       H  0.09631027  0.64504650  0.88754136     0.12940
H1281       H  0.50421757  0.71120407  0.85686113     0.12950
C1282       C  0.48812977  0.66721500  0.90213888     0.62480
F1283       F  0.13547497  0.66906984  0.85493022    -0.22690
F1284       F  0.12163900  0.71992844  0.84636946    -0.20020
F1285       F  0.11071929  0.68251393  0.80995085    -0.19700
F1286       F  0.49008680  0.67218659  0.93431723    -0.19750
F1287       F  0.47861717  0.63618148  0.89675448    -0.20070
F1288       F  0.46519877  0.68745929  0.89000951    -0.22740
C1289       C  0.38817891  0.53233773  0.62913454    -0.05580
C1290       C  0.39462889  0.54889315  0.65724544     0.00350
C1291       C  0.42528083  0.56296765  0.66095173    -0.08230
C1292       C  0.44785466  0.55922318  0.63660324    -0.05600
C1293       C  0.44091299  0.54325426  0.60834798     0.00330
C1294       C  0.41050209  0.52921801  0.60463169    -0.08130
C1295       C  0.40157306  0.50968690  0.57579567     0.62240
H1296       H  0.36532453  0.52083911  0.62672604     0.12940
H1297       H  0.47125576  0.56957933  0.63940343     0.12950
C1298       C  0.43570301  0.58184848  0.68972485     0.62480
F1299       F  0.39756605  0.52943865  0.54980360    -0.22690
F1300       F  0.42499788  0.48750856  0.56956947    -0.20020
F1301       F  0.37343930  0.49325968  0.58050413    -0.19700
F1302       F  0.45096517  0.56174316  0.71084362    -0.19750
F1303       F  0.41034827  0.59658441  0.70441246    -0.20070
F1304       F  0.45694067  0.60556040  0.68104032    -0.22740
C1305       C  0.20632962  0.54705741  0.62746007    -0.05580
C1306       C  0.19880933  0.52992215  0.65525311     0.00350
C1307       C  0.16817524  0.51593123  0.65786810    -0.08230
C1308       C  0.14602175  0.52110984  0.63334257    -0.05600
C1309       C  0.15363594  0.53836734  0.60558811     0.00330
C1310       C  0.18461156  0.55140833  0.60254672    -0.08130
C1311       C  0.19461800  0.57130968  0.57406436     0.62240
H1312       H  0.22947560  0.55815492  0.62577045     0.12940
H1313       H  0.12246152  0.51092173  0.63567102     0.12950
C1314       C  0.15779827  0.49527984  0.68563705     0.62480
F1315       F  0.22408026  0.58521823  0.57836455    -0.22690
F1316       F  0.17283133  0.59544521  0.56913540    -0.20020
F1317       F  0.19656387  0.55236827  0.54746169    -0.19700
F1318       F  0.14041548  0.51342286  0.70668641    -0.19750
F1319       F  0.18335518  0.48165263  0.70108568    -0.20070
F1320       F  0.13869483  0.47071345  0.67521959    -0.22740
C1321       C  0.16942447  0.57656649  0.84120015    -0.05580
C1322       C  0.20079021  0.56724680  0.84804952     0.00350
C1323       C  0.20636910  0.55096094  0.87745609    -0.08230
C1324       C  0.18104434  0.54742361  0.89905970    -0.05600
C1325       C  0.14960065  0.55533269  0.89142125     0.00330
C1326       C  0.14348393  0.56835650  0.86079762    -0.08130
C1327       C  0.11014119  0.57214982  0.84752971     0.62240
H1328       H  0.16494063  0.58920442  0.81932112     0.12940
H1329       H  0.18565811  0.53711895  0.92212942     0.12950
C1330       C  0.23790459  0.53552973  0.88647001     0.62480
F1331       F  0.11025950  0.58409764  0.81689081    -0.22690
F1332       F  0.09272843  0.59273502  0.86586371    -0.20020
F1333       F  0.09526833  0.54277062  0.84687707    -0.19700
F1334       F  0.25956742  0.55852024  0.89524733    -0.19750
F1335       F  0.24966926  0.51774584  0.86162456    -0.20070
F1336       F  0.23463662  0.51489067  0.91195175    -0.22740
C1337       C  0.38502467  0.52352462  0.87807219    -0.05580
C1338       C  0.39121784  0.53752736  0.84853207     0.00350
C1339       C  0.42004692  0.55466816  0.84375803    -0.08230
C1340       C  0.44184983  0.55631110  0.86874596    -0.05600
C1341       C  0.43579835  0.54235067  0.89840304     0.00330
C1342       C  0.40664392  0.52568846  0.90331690    -0.08130
C1343       C  0.39825464  0.50953819  0.93452844     0.62240
H1344       H  0.36268864  0.51110203  0.88126468     0.12940
H1345       H  0.46400077  0.56899449  0.86531044     0.12950
C1346       C  0.42778985  0.57230517  0.81301397     0.62480
F1347       F  0.37033031  0.49221357  0.93269261    -0.22690
F1348       F  0.39426430  0.53210388  0.95792316    -0.20020
F1349       F  0.42216596  0.48870867  0.94286959    -0.19700
F1350       F  0.40249699  0.59126206  0.80401976    -0.19750
F1351       F  0.43455033  0.55078918  0.78932336    -0.20070
F1352       F  0.45402573  0.59193829  0.81611713    -0.22740
C1353       C  0.20349697  0.91611138  0.99266107    -0.05580
C1354       C  0.19557358  0.88786612  0.50909203     0.00350
C1355       C  0.16504484  0.88524939  0.52315894    -0.08230
C1356       C  0.14329801  0.91032080  0.51869388    -0.05600
C1357       C  0.15148695  0.93865915  0.50253616     0.00330
C1358       C  0.18248626  0.94183573  0.98969070    -0.08130
C1359       C  0.19354090  0.97162291  0.97212406     0.62240
H1360       H  0.22658007  0.91778056  0.98145792     0.12940
H1361       H  0.11969704  0.90805268  0.52878126     0.12950
C1362       C  0.15440228  0.85701223  0.54315559     0.62480
F1363       F  0.22311953  0.96759492  0.45835062    -0.22690
F1364       F  0.19588184  0.49676236  0.49300850    -0.20020
F1365       F  0.17234362  0.47914258  0.94826489    -0.19700
F1366       F  0.17980623  0.84116009  0.55662428    -0.19750
F1367       F  0.13723510  0.83622382  0.02454690    -0.20070
F1368       F  0.13509279  0.86709202  0.06771189    -0.22740
C1369       C  0.18321949  0.64568791  0.00348819    -0.05580
C1370       C  0.15319151  0.65187072  0.49061023     0.00350
C1371       C  0.14941900  0.67909882  0.47088919    -0.08230
C1372       C  0.17610277  0.69804145  0.46376361    -0.05600
C1373       C  0.20570629  0.69327486  0.47839380     0.00330
C1374       C  0.20923947  0.66638162  0.99907676    -0.08130
C1375       C  0.23943169  0.65925883  0.01764768     0.62240
H1376       H  0.18599640  0.62448516  0.01783692     0.12940
H1377       H  0.17354095  0.71790077  0.44755822     0.12950
C1378       C  0.11752154  0.68833829  0.45722088     0.62480
F1379       F  0.23483146  0.63542445  0.53991696    -0.22690
F1380       F  0.24935204  0.68593031  0.53389364    -0.20020
F1381       F  0.26303358  0.64892874  0.99741069    -0.19700
F1382       F  0.09704445  0.69682196  0.48139980    -0.19750
F1383       F  0.10527039  0.66283822  0.94109285    -0.20070
F1384       F  0.11963196  0.71381770  0.93634238    -0.22740
C1385       C  0.44562786  0.68146011  0.99795101    -0.05580
C1386       C  0.43907562  0.65168443  0.51128679     0.00350
C1387       C  0.41042478  0.64732729  0.52880777    -0.08230
C1388       C  0.38911402  0.67307623  0.53135270    -0.05600
C1389       C  0.39509547  0.70250733  0.01628057     0.00330
C1390       C  0.42403645  0.70672151  0.99905082    -0.08130
C1391       C  0.43225321  0.73660704  0.98001650     0.62240
H1392       H  0.46803826  0.68486910  0.98594728     0.12940
H1393       H  0.36701911  0.67013338  0.54421944     0.12950
C1394       C  0.40208814  0.61599941  0.54501384     0.62480
F1395       F  0.45699055  0.73155491  0.95892690    -0.22690
F1396       F  0.43730621  0.76185851  0.49999372    -0.20020
F1397       F  0.40645618  0.74620638  0.96223197    -0.19700
F1398       F  0.42683479  0.60635041  0.56422336    -0.19750
F1399       F  0.39612596  0.59303173  0.02247327    -0.20070
F1400       F  0.37524707  0.61854977  0.56383608    -0.22740
C1401       C  0.40910277  0.94748121  0.50305193    -0.05580
C1402       C  0.44013184  0.93835295  0.49485280     0.00350
C1403       C  0.44506882  0.90722130  0.98251374    -0.08230
C1404       C  0.41858521  0.88721156  0.97844747    -0.05600
C1405       C  0.38803693  0.89533463  0.48924642     0.00330
C1406       C  0.38303919  0.92666360  0.50129352    -0.08130
C1407       C  0.35100616  0.93882563  0.51311440     0.62240
H1408       H  0.40534163  0.97137815  0.51162611     0.12940
H1409       H  0.42190237  0.86405499  0.96791786     0.12950
C1410       C  0.47780037  0.89409827  0.97445827     0.62480
F1411       F  0.35343346  0.96826605  0.52735264    -0.22690
F1412       F  0.33831904  0.91811632  0.53537258    -0.20020
F1413       F  0.33041887  0.94265795  0.98800870    -0.19700
F1414       F  0.99619117  0.89278747  0.50151926    -0.19750
F1415       F  0.99241357  0.91306413  0.95196539    -0.20070
F1416       F  0.47635324  0.86354544  0.96237938    -0.22740
C1417       C  0.86437638  0.36884403  0.99315806     0.03330
C1418       C  0.87451155  0.33800446  0.50314139    -0.12820
C1419       C  0.85230579  0.31624856  0.51510431     0.00830
C1420       C  0.82208337  0.32833215  0.52222726    -0.11350
C1421       C  0.80976256  0.35324448  0.00377516     0.03320
C1422       C  0.83142734  0.37327347  0.98820104    -0.10770
H1423       H  0.89907001  0.33065945  0.50172728     0.08920
H1424       H  0.80657910  0.31488080  0.53744379     0.06440
H1425       H  0.82272738  0.39173848  0.97271087     0.06290
C1426       C  0.86858239  0.22606405  0.51485802     0.03330
C1427       C  0.87380865  0.25881602  0.52154340    -0.12820
C1428       C  0.85399071  0.28153252  0.50729426     0.00830
C1429       C  0.83141354  0.27024652  0.48603541    -0.11350
C1430       C  0.81817978  0.23991650  0.49040297     0.03320
C1431       C  0.83826147  0.21663126  0.50326740    -0.10770
H1432       H  0.89341277  0.26630640  0.53622608     0.08920
H1433       H  0.81939354  0.28708568  0.47146045     0.06440
H1434       H  0.83093536  0.19191254  0.50341464     0.06290
C1435       C  0.72927998  0.22016478  0.97666342     0.03330
C1436       C  0.76287150  0.21509929  0.97659824    -0.12820
C1437       C  0.78249930  0.23839751  0.99019973     0.00830
C1438       C  0.76721139  0.26475382  0.00293272    -0.11350
C1439       C  0.73892668  0.27568148  0.99012203     0.03320
C1440       C  0.71820617  0.25236408  0.97889715    -0.10770
H1441       H  0.77317678  0.19356307  0.96738731     0.08920
H1442       H  0.78020154  0.28030583  0.01769048     0.06440
H1443       H  0.69391338  0.25899390  0.97396086     0.06290
C1444       C  0.71979021  0.36193603  0.00801477     0.03330
C1445       C  0.75233753  0.37035530  0.01097134    -0.12820
C1446       C  0.77538156  0.35208165  0.99570286     0.00830
C1447       C  0.76481629  0.32657056  0.97759483    -0.11350
C1448       C  0.73644416  0.31115002  0.98600697     0.03320
C1449       C  0.71224698  0.33026827  0.99863417    -0.10770
H1450       H  0.75930127  0.39198120  0.02298794     0.08920
H1451       H  0.78114350  0.31455093  0.96236946     0.06440
H1452       H  0.68843193  0.32089372  0.00017029     0.06290
C1453       C  0.86560733  0.03750449  0.32451057     0.03330
C1454       C  0.83497924  0.04982836  0.33196959    -0.12820
C1455       C  0.81577256  0.06094422  0.30716567     0.00830
C1456       C  0.83039494  0.06313873  0.27733447    -0.11350
C1457       C  0.85298043  0.04045875  0.26869661     0.03320
C1458       C  0.87186760  0.02798251  0.29294440    -0.10770
H1459       H  0.82673039  0.05136805  0.35621666     0.08920
H1460       H  0.81953787  0.07704822  0.25922566     0.06440
H1461       H  0.89170043  0.01261569  0.28740188     0.06290
C1462       C  0.72502327  0.06946918  0.32168277     0.03330
C1463       C  0.75823049  0.07324392  0.32779985    -0.12820
C1464       C  0.78005582  0.05924650  0.30683513     0.00830
C1465       C  0.76713824  0.04313703  0.28129942    -0.11350
C1466       C  0.73871750  0.05291885  0.26794424     0.03320
C1467       C  0.71579078  0.06386890  0.28938379    -0.10770
H1468       H  0.76666134  0.08527542  0.34860630     0.08920
H1469       H  0.78190138  0.02776931  0.26819432     0.06440
H1470       H  0.69154731  0.06597494  0.28136172     0.06290
C1471       C  0.72293182  0.03116660  0.18130688     0.03330
C1472       C  0.71456308  0.04071504  0.21266173    -0.12820
C1473       C  0.73812750  0.05365819  0.23219694     0.00830
C1474       C  0.76690658  0.06177753  0.21744139    -0.11350
C1475       C  0.77857162  0.04338969  0.19265600     0.03320
C1476       C  0.75588527  0.02829737  0.17360286    -0.10770
H1477       H  0.69048478  0.03940653  0.22133478     0.08920
H1478       H  0.78267435  0.07747534  0.22934187     0.06440
H1479       H  0.76339462  0.01625920  0.15224931     0.06290
C1480       C  0.86934751  0.04700754  0.18226416     0.03330
C1481       C  0.83654558  0.04845551  0.17365418    -0.12820
C1482       C  0.81334289  0.03528222  0.19388360     0.00830
C1483       C  0.82413436  0.02070753  0.22176818    -0.11350
C1484       C  0.85321429  0.02984192  0.23499021     0.03320
C1485       C  0.87695833  0.03972310  0.21413598    -0.10770
H1486       H  0.82943416  0.05857596  0.15111700     0.08920
H1487       H  0.80812394  0.00615158  0.23530636     0.06440
H1488       H  0.90076809  0.04113558  0.22307755     0.06290
C1489       C  0.55443214  0.22619292  0.32371169     0.03330
C1490       C  0.55263146  0.25897390  0.33160825    -0.12820
C1491       C  0.54000260  0.28039895  0.30941065     0.00830
C1492       C  0.52669029  0.26720592  0.28211161    -0.11350
C1493       C  0.53818365  0.23847206  0.26994507     0.03320
C1494       C  0.55062808  0.21667571  0.29177803    -0.10770
H1495       H  0.55992835  0.26723501  0.35471665     0.08920
H1496       H  0.51116392  0.28134894  0.26803806     0.06440
H1497       H  0.55604258  0.19262298  0.28443880     0.06290
C1498       C  0.53524361  0.37098410  0.31989318     0.03330
C1499       C  0.53446227  0.33839027  0.32920830    -0.12820
C1500       C  0.54658322  0.31556502  0.30836077     0.00830
C1501       C  0.56130172  0.32712319  0.28095939    -0.11350
C1502       C  0.55112424  0.35548645  0.26672098     0.03320
C1503       C  0.53940964  0.37896680  0.28727686    -0.10770
H1504       H  0.52642341  0.33138492  0.35261525     0.08920
H1505       H  0.57649264  0.31180807  0.26806448     0.06440
H1506       H  0.53500081  0.40288752  0.27867107     0.06290
C1507       C  0.53424941  0.22245767  0.18050737     0.03330
C1508       C  0.53168216  0.21570098  0.21346644    -0.12820
C1509       C  0.54430803  0.23757820  0.23495967     0.00830
C1510       C  0.56024957  0.26371999  0.22204438    -0.11350
C1511       C  0.55095392  0.27652178  0.19289383     0.03320
C1512       C  0.53946606  0.25464292  0.17061610    -0.10770
H1513       H  0.52150868  0.19352666  0.22187935     0.08920
H1514       H  0.57549181  0.27714154  0.23674897     0.06440
H1515       H  0.53590207  0.26197482  0.14626526     0.06290
C1516       C  0.56301308  0.36618400  0.17674576     0.03330
C1517       C  0.56020165  0.37598367  0.20890620    -0.12820
C1518       C  0.54756377  0.35447786  0.23116675     0.00830
C1519       C  0.53513238  0.32623678  0.21906778    -0.11390
C1520       C  0.54766671  0.31231104  0.19181684     0.03320
C1521       C  0.56027901  0.33329045  0.16906746    -0.10770
H1522       H  0.56624367  0.39999022  0.21590939     0.08920
H1523       H  0.52008110  0.31237148  0.23370773     0.06440
H1524       H  0.56649447  0.32476462  0.14571426     0.06290
O1525       O  0.99483570  0.45398425  0.99872184    -0.79930
O1526       O  0.99296330  0.13577143  0.00516410    -0.81490
O1527       O  0.95662084  0.04344546  0.05429403    -0.78500
O1528       O  0.95319690  0.04547629  0.45199857    -0.76890
O1529       O  0.99035353  0.04605383  0.41265178    -0.78680
O1530       O  0.99519278  0.04260984  0.09208624    -0.79610
O1531       O  0.95483606  0.09713350  0.00577629    -0.80940
O1532       O  0.95681520  0.49239071  0.99984887    -0.81230
Eu1533     Eu  0.98176417  0.04537900  0.00217986     2.39200
O1534       O  0.51223492  0.07940037  0.46933902    -0.88740
O1535       O  0.51439469  0.01228178  0.03329380    -0.92340
C1536       C  0.96565804  0.46296127  0.99815866     1.02350
C1537       C  0.96373823  0.12645279  0.00719042     1.02170
C1538       C  0.96580976  0.04264683  0.08331041     1.02110
C1539       C  0.96130212  0.04479559  0.42264084     0.99970
H1540       H  0.50125151  0.08978922  0.04734950     0.29720
O1541       O  0.51453680  0.07718632  0.03362725    -1.01120
H1542       H  0.49959133  0.00124503  0.45565806     0.29750
O1543       O  0.51313155  0.01424436  0.46869474    -1.03670
O1544       O  0.59850360  0.13678622  0.99844026    -0.80890
O1545       O  0.59767502  0.45467092  0.99887139    -0.80430
O1546       O  0.54426316  0.09734827  0.09127874    -0.78870
O1547       O  0.54415318  0.10007470  0.41056058    -0.82210
O1548       O  0.54123809  0.49666405  0.40822273    -0.80060
O1549       O  0.55014254  0.49173647  0.08987179    -0.78710
O1550       O  0.63671858  0.04326839  0.05139349    -0.80230
O1551       O  0.63449635  0.04919304  0.44580571    -0.82160
O1552       O  0.59935482  0.04319989  0.09065102    -0.78900
O1553       O  0.59538487  0.04925813  0.40863193    -0.81570
O1554       O  0.54393117  0.13649548  0.05333856    -0.77310
O1555       O  0.54890342  0.45405268  0.05077068    -0.77340
O1556       O  0.54387916  0.45712098  0.44573043    -0.76980
O1557       O  0.54444218  0.13790023  0.44944025    -0.80480
O1558       O  0.63662458  0.09814936  0.99675908    -0.79900
O1559       O  0.63571713  0.49334080  0.99974047    -0.78230
Eu1560     Eu  0.54569394  0.11074944  0.00139184     2.39770
Eu1561     Eu  0.54612699  0.48130466  0.99904366     2.39570
Eu1562     Eu  0.54709184  0.04482518  0.06501436     2.38400
Eu1563     Eu  0.54391091  0.04746033  0.43619176     2.39880
Eu1564     Eu  0.61014304  0.04609074  0.99910071     2.39790
O1565       O  0.57781623  0.01422127  0.46635528    -0.92650
O1566       O  0.57910967  0.07832173  0.03289949    -0.91540
C1567       C  0.62769887  0.12756128  0.99587920     1.02520
C1568       C  0.62685136  0.46391167  0.99985314     1.01240
C1569       C  0.54261979  0.12685297  0.08235130     1.00630
C1570       C  0.54470345  0.12915193  0.42015859     1.02640
C1571       C  0.54130488  0.46718993  0.41683853     1.01560
C1572       C  0.55062302  0.46269998  0.08000862     1.00410
C1573       C  0.62842572  0.04219252  0.08090227     1.00470
C1574       C  0.62482460  0.05072760  0.41673832     1.03080
H1575       H  0.59173858  0.00006123  0.04367715     0.30450
O1576       O  0.57817096  0.01354221  0.03102073    -1.04810
H1577       H  0.58944323  0.09216895  0.45503209     0.32500
O1578       O  0.57665573  0.07858059  0.46846896    -1.07370
C1579       C  0.53137702  0.39695662  0.13866545    -0.05580
C1580       C  0.56153445  0.39030405  0.15117034     0.00350
C1581       C  0.58839342  0.40693811  0.13972070    -0.08230
C1582       C  0.58400383  0.43063554  0.11632489    -0.05600
C1583       C  0.55372014  0.43741407  0.10409555     0.00330
C1584       C  0.52698717  0.42029318  0.11512149    -0.08130
C1585       C  0.99401795  0.42711650  0.10228430     0.62240
H1586       H  0.01115920  0.38379017  0.14779467     0.12940
H1587       H  0.60414965  0.44401001  0.10733564     0.12950
C1588       C  0.62128608  0.39917102  0.15194280     0.62480
F1589       F  0.97109902  0.40830563  0.11671950    -0.22690
F1590       F  0.99331546  0.42119711  0.07011691    -0.20020
F1591       F  0.98630977  0.45867962  0.10746413    -0.19700
F1592       F  0.62776516  0.36732901  0.14686852    -0.19750
F1593       F  0.62280706  0.40524161  0.18404795    -0.20070
F1594       F  0.64447785  0.41704693  0.13678552    -0.22740
C1595       C  0.51415539  0.19788488  0.13107905    -0.05580
C1596       C  0.53480874  0.19623326  0.15699928     0.00350
C1597       C  0.55815403  0.17169276  0.15814711    -0.08230
C1598       C  0.55932628  0.14937091  0.13349146    -0.05600
C1599       C  0.53908317  0.15133175  0.10734397     0.00330
C1600       C  0.51587472  0.17589464  0.10606731    -0.08130
C1601       C  0.49244294  0.17853746  0.07894755     0.62240
H1602       H  0.49690624  0.21698707  0.13038790     0.12940
H1603       H  0.57670651  0.13037718  0.13407469     0.12950
C1604       C  0.58284433  0.16952391  0.18436267     0.62480
F1605       F  0.46938149  0.20131380  0.08456695    -0.22690
F1606       F  0.47733781  0.14963951  0.07493162    -0.20020
F1607       F  0.50819895  0.18700338  0.05139575    -0.19700
F1608       F  0.56859724  0.16011310  0.21240130    -0.19750
F1609       F  0.59748198  0.19871464  0.18838751    -0.20070
F1610       F  0.60631579  0.14753099  0.17747607    -0.22740
C1611       C  0.50964907  0.41412572  0.35114159    -0.05580
C1612       C  0.53668926  0.39592847  0.34445387     0.00350
C1613       C  0.56542968  0.40193763  0.36091145    -0.08230
C1614       C  0.56563681  0.42501645  0.38483804    -0.05600
C1615       C  0.53867756  0.44312394  0.39165895     0.00330
C1616       C  0.51029628  0.43820339  0.37429636    -0.08130
C1617       C  0.98105093  0.45849173  0.37998327     0.62240
H1618       H  0.98820838  0.40954713  0.33781528     0.12940
H1619       H  0.58712269  0.42958586  0.39812000     0.12950
C1620       C  0.59605838  0.38467204  0.35264669     0.62480
F1621       F  0.95528889  0.44806837  0.36257322    -0.22690
F1622       F  0.98741129  0.48960735  0.37125139    -0.20020
F1623       F  0.97270005  0.45756411  0.41162414    -0.19700
F1624       F  0.60282964  0.38882534  0.32081961    -0.19750
F1625       F  0.59305073  0.35254277  0.35922146    -0.20070
F1626       F  0.62163239  0.39610577  0.36971325    -0.22740
C1627       C  0.57624596  0.15947712  0.38062535    -0.05580
C1628       C  0.54686622  0.15428362  0.39568362     0.00350
C1629       C  0.52037997  0.17295181  0.38715572    -0.08230
C1630       C  0.52429553  0.19672092  0.36395903    -0.05600
C1631       C  0.55368182  0.20192216  0.34900399     0.00330
C1632       C  0.58019208  0.18319428  0.35730805    -0.08130
C1633       C  0.61238903  0.18865140  0.34201523     0.62240
H1634       H  0.59630533  0.14504364  0.38754062     0.12940
H1635       H  0.00423760  0.21121813  0.35686934     0.12950
C1636       C  0.98814479  0.16723795  0.40215353     0.62480
F1637       F  0.63547091  0.16906615  0.35493001    -0.22690
F1638       F  0.62163742  0.21992584  0.34637173    -0.20020
F1639       F  0.61071591  0.18251369  0.30995128    -0.19700
F1640       F  0.99011113  0.17221638  0.43433118    -0.19750
F1641       F  0.97861981  0.13620662  0.39677618    -0.20070
F1642       F  0.96521782  0.18748839  0.39002687    -0.22740
C1643       C  0.88817924  0.03234158  0.12913591    -0.05580
C1644       C  0.89463124  0.04889524  0.15724745     0.00350
C1645       C  0.92528473  0.06296650  0.16095366    -0.08230
C1646       C  0.94785787  0.05922036  0.13660477    -0.05600
C1647       C  0.94091416  0.04325308  0.10834901     0.00330
C1648       C  0.91050159  0.02922064  0.10463249    -0.08130
C1649       C  0.90156961  0.00969227  0.07579547     0.62240
H1650       H  0.86532377  0.02084523  0.12672728     0.12940
H1651       H  0.97126012  0.06957382  0.13940504     0.12950
C1652       C  0.93570933  0.08184555  0.18972705     0.62480
F1653       F  0.89756590  0.02944574  0.04980416    -0.22690
F1654       F  0.92499095  0.98751042  0.06956857    -0.20020
F1655       F  0.87343311  0.99326952  0.08050284    -0.19700
F1656       F  0.95096862  0.06173793  0.21084573    -0.19750
F1657       F  0.91035643  0.09658484  0.20441444    -0.20070
F1658       F  0.95695035  0.10555466  0.18104304    -0.22740
C1659       C  0.70633394  0.04706373  0.12746169    -0.05580
C1660       C  0.69881381  0.02992423  0.15525224     0.00350
C1661       C  0.66818085  0.01593055  0.15786434    -0.08230
C1662       C  0.64602790  0.02111084  0.13333878    -0.05600
C1663       C  0.65364199  0.03837232  0.10558673     0.00330
C1664       C  0.68461665  0.05141593  0.10254796    -0.08130
C1665       C  0.69462267  0.07132102  0.07406803     0.62240
H1666       H  0.72947912  0.05816328  0.12577439     0.12940
H1667       H  0.62246836  0.01092059  0.13566504     0.12950
C1668       C  0.65780460  0.99527406  0.18562978     0.62480
F1669       F  0.72408378  0.08523120  0.07837080    -0.22690
F1670       F  0.67283444  0.09545547  0.06914070    -0.20020
F1671       F  0.69657082  0.05238255  0.04746345    -0.19700
F1672       F  0.64041689  0.01341175  0.20667971    -0.19750
F1673       F  0.68336203  0.98164905  0.20107944    -0.20070
F1674       F  0.63870629  0.97070586  0.17520715    -0.22740
C1675       C  0.66942227  0.07656195  0.34120119    -0.05580
C1676       C  0.70078810  0.06724304  0.34805161     0.00350
C1677       C  0.70636664  0.05095944  0.37745947    -0.08230
C1678       C  0.68104154  0.04742316  0.39906278    -0.05600
C1679       C  0.64959782  0.05533114  0.39142334     0.00330
C1680       C  0.64348144  0.06835312  0.36079888    -0.08130
C1681       C  0.61013881  0.07214562  0.34753036     0.62240
H1682       H  0.66493860  0.08919850  0.31932138     0.12940
H1683       H  0.68565520  0.03712012  0.42213321     0.12950
C1684       C  0.73790219  0.03552960  0.38647541     0.62480
F1685       F  0.61025752  0.08409128  0.31689063    -0.22690
F1686       F  0.59272588  0.09273223  0.36586270    -0.20020
F1687       F  0.59526583  0.04276642  0.34687957    -0.19700
F1688       F  0.75956407  0.05852122  0.39525215    -0.19750
F1689       F  0.74966816  0.01774433  0.36163158    -0.20070
F1690       F  0.73463387  0.01489212  0.41195828    -0.22740
C1691       C  0.88502594  0.02352168  0.37807344    -0.05580
C1692       C  0.89121823  0.03752519  0.34853352     0.00350
C1693       C  0.92004713  0.05466628  0.34375902    -0.08230
C1694       C  0.94185048  0.05630910  0.36874652    -0.05600
C1695       C  0.93579973  0.04234814  0.39840346     0.00330
C1696       C  0.90664581  0.02568519  0.40331760    -0.08130
C1697       C  0.89825801  0.00953341  0.43452872     0.62240
H1698       H  0.86269021  0.01109861  0.38126619     0.12940
H1699       H  0.96400117  0.06899290  0.36531084     0.12950
C1700       C  0.92778955  0.07230372  0.31301502     0.62480
F1701       F  0.87033437  0.99220767  0.43269293    -0.22690
F1702       F  0.89426732  0.03209800  0.45792442    -0.20020
F1703       F  0.92217054  0.98870464  0.44286833    -0.19700
F1704       F  0.90249631  0.09126020  0.30402106    -0.19750
F1705       F  0.93455047  0.05078810  0.28932420    -0.20070
F1706       F  0.95402504  0.09193735  0.31611820    -0.22740
C1707       C  0.70349188  0.41611063  0.49266298    -0.05580
C1708       C  0.69557807  0.38787091  0.00909641     0.00350
C1709       C  0.66504879  0.38525283  0.02316200    -0.08230
C1710       C  0.64330035  0.41032266  0.01869513    -0.05600
C1711       C  0.65148806  0.43866117  0.00253709     0.00330
C1712       C  0.68248270  0.44183649  0.48969342    -0.08130
C1713       C  0.69353961  0.47162416  0.47212903     0.62240
H1714       H  0.72657522  0.41777898  0.48146020     0.12940
H1715       H  0.61969918  0.40805332  0.02878179     0.12950
C1716       C  0.65440734  0.35701615  0.04315985     0.62480
F1717       F  0.72312064  0.46759909  0.95835276    -0.22690
F1718       F  0.69589118  0.99676658  0.99299970    -0.20020
F1719       F  0.67234313  0.97914557  0.44827233    -0.19700
F1720       F  0.67981184  0.34116342  0.05662680    -0.19750
F1721       F  0.63722735  0.33622451  0.52454567    -0.20070
F1722       F  0.63508245  0.36709273  0.56771048    -0.22740
C1723       C  0.68321386  0.14568486  0.50348564    -0.05580
C1724       C  0.65319696  0.15187825  0.99061159     0.00350
C1725       C  0.64942415  0.17910641  0.97089070    -0.08230
C1726       C  0.67610801  0.19804844  0.96376398    -0.05600
C1727       C  0.70571173  0.19328197  0.97839391     0.00330
C1728       C  0.70923399  0.16637809  0.49907372    -0.08130
C1729       C  0.73942720  0.15925336  0.51764231     0.62240
H1730       H  0.68599094  0.12448172  0.51783371     0.12940
H1731       H  0.67354612  0.21790756  0.94755833     0.12950
C1732       C  0.61752616  0.18834714  0.95722453     0.62480
F1733       F  0.73483565  0.13543654  0.03992190    -0.22690
F1734       F  0.74935513  0.18594241  0.03389530    -0.20020
F1735       F  0.76302776  0.14892479  0.49740300    -0.19700
F1736       F  0.59705093  0.19683090  0.98140497    -0.19750
F1737       F  0.60526341  0.16283746  0.44109264    -0.20070
F1738       F  0.61962570  0.21381668  0.43634230    -0.22740
C1739       C  0.94544319  0.18166051  0.49788520    -0.05580
C1740       C  0.93908479  0.15158471  0.01129475     0.00350
C1741       C  0.91042404  0.14732117  0.02879610    -0.08230
C1742       C  0.88917511  0.17313194  0.03126220    -0.05600
C1743       C  0.89487421  0.20246144  0.51639314     0.00330
C1744       C  0.92354983  0.20678772  0.49895363    -0.08130
C1745       C  0.93079845  0.23689773  0.47986946     0.62240
H1746       H  0.96777398  0.18519834  0.48577162     0.12940
H1747       H  0.86705312  0.17024286  0.04410225     0.12950
C1748       C  0.90207457  0.11600467  0.04501083     0.62480
F1749       F  0.95697017  0.23312755  0.46031839    -0.22690
F1750       F  0.94175234  0.26058502  0.00017789    -0.20020
F1751       F  0.90531464  0.24464495  0.46072740    -0.19700
F1752       F  0.92682748  0.10635125  0.06421794    -0.19750
F1753       F  0.89612876  0.09302587  0.52246989    -0.20070
F1754       F  0.87523842  0.11855805  0.06382765    -0.22740
C1755       C  0.90910865  0.44748393  0.00305054    -0.05580
C1756       C  0.94013743  0.43835449  0.99485223     0.00350
C1757       C  0.94505952  0.40721746  0.48251129    -0.08230
C1758       C  0.91857575  0.38720741  0.47844570    -0.05600
C1759       C  0.88804187  0.39533883  0.98924519     0.00330
C1760       C  0.88304452  0.42666766  0.00129157    -0.08130
C1761       C  0.85101136  0.43883202  0.01310943     0.62240
H1762       H  0.90534810  0.47138110  0.01162419     0.12940
H1763       H  0.92189201  0.36405049  0.46791643     0.12950
C1764       C  0.97779072  0.39409502  0.47445354     0.62480
F1765       F  0.85343907  0.46827357  0.02734535    -0.22690
F1766       F  0.83832183  0.41812526  0.03536856    -0.20020
F1767       F  0.83040941  0.44265283  0.48801302    -0.19700
F1768       F  0.49617793  0.39278393  0.00151854    -0.19750
F1769       F  0.49240789  0.41307074  0.45196283    -0.20070
F1770       F  0.97634287  0.36354336  0.46237190    -0.22740
C1771       C  0.86437012  0.36883829  0.49315720     0.03330
C1772       C  0.87452656  0.33801333  0.00314094    -0.12820
C1773       C  0.85233305  0.31625357  0.01510102     0.00830
C1774       C  0.82209927  0.32833118  0.02222521    -0.11350
C1775       C  0.80975459  0.35324171  0.50377079     0.03320
C1776       C  0.83142230  0.37326962  0.48819778    -0.10770
H1777       H  0.89908568  0.33067185  0.00172594     0.08920
H1778       H  0.80659655  0.31487833  0.03744254     0.06440
H1779       H  0.82272446  0.39173504  0.47270701     0.06290
C1780       C  0.86878808  0.22611066  0.01471733     0.03330
C1781       C  0.87415733  0.25886482  0.02122884    -0.12820
C1782       C  0.85404340  0.28153588  0.00730090     0.00830
C1783       C  0.83142060  0.27025179  0.98608552    -0.11350
C1784       C  0.81821163  0.23992273  0.99043471     0.03320
C1785       C  0.83833814  0.21666424  0.00330871    -0.10770
H1786       H  0.89424503  0.26639921  0.03523945     0.08920
H1787       H  0.81938661  0.28709119  0.97152169     0.06440
H1788       H  0.83099341  0.19194904  0.00346596     0.06290
C1789       C  0.72927283  0.22015907  0.47666441     0.03330
C1790       C  0.76286212  0.21509398  0.47659931    -0.12820
C1791       C  0.78248435  0.23839449  0.49019613     0.00830
C1792       C  0.76720450  0.26474958  0.50293326    -0.11350
C1793       C  0.73892025  0.27567690  0.49012245     0.03320
C1794       C  0.71819965  0.25235884  0.47889730    -0.10770
H1795       H  0.77316983  0.19355864  0.46738820     0.08920
H1796       H  0.78019965  0.28030059  0.51768756     0.06440
H1797       H  0.69390720  0.25898868  0.47396011     0.06290
C1798       C  0.71978512  0.36193261  0.50800988     0.03330
C1799       C  0.75233239  0.37035165  0.51096593    -0.12820
C1800       C  0.77537562  0.35207789  0.49569759     0.00830
C1801       C  0.76481042  0.32656491  0.47759236    -0.11350
C1802       C  0.73643842  0.31114503  0.48600525     0.03320
C1803       C  0.71224150  0.33026435  0.49863106    -0.10770
H1804       H  0.75929657  0.39197794  0.52298163     0.08920
H1805       H  0.78113627  0.31454507  0.46236691     0.06440
H1806       H  0.68842646  0.32089005  0.50016758     0.06290
C1807       C  0.86560939  0.03750661  0.82450881     0.03330
C1808       C  0.83498203  0.04983290  0.83196692    -0.12820
C1809       C  0.81577586  0.06094786  0.80716218     0.00830
C1810       C  0.83039800  0.06313891  0.77733069    -0.11350
C1811       C  0.85298161  0.04045655  0.76869451     0.03320
C1812       C  0.87186899  0.02798191  0.79294316    -0.10770
H1813       H  0.82673335  0.05137490  0.85621388     0.08920
H1814       H  0.81954112  0.07704698  0.75922063     0.06440
H1815       H  0.89170114  0.01261384  0.78740166     0.06290
C1816       C  0.72502757  0.06947944  0.82168041     0.03330
C1817       C  0.75823506  0.07325243  0.82779682    -0.12820
C1818       C  0.78005901  0.05925318  0.80683199     0.00830
C1819       C  0.76713980  0.04314398  0.78129692    -0.11350
C1820       C  0.73871934  0.05292706  0.76794209     0.03320
C1821       C  0.71579385  0.06387910  0.78938185    -0.10770
H1822       H  0.76666695  0.08528345  0.84860317     0.08920
H1823       H  0.78190148  0.02777478  0.76819199     0.06440
H1824       H  0.69155016  0.06598610  0.78136060     0.06290
C1825       C  0.72292924  0.03116818  0.68130745     0.03330
C1826       C  0.71456217  0.04072063  0.71266151    -0.12820
C1827       C  0.73812813  0.05366390  0.73219482     0.00830
C1828       C  0.76690755  0.06177941  0.71743787    -0.11350
C1829       C  0.77857056  0.04338758  0.69265457     0.03320
C1830       C  0.75588241  0.02829552  0.67360307    -0.10770
H1831       H  0.69048408  0.03941488  0.72133543     0.08920
H1832       H  0.78267712  0.07747691  0.72933663     0.06440
H1833       H  0.76339034  0.01625447  0.65225065     0.06290
C1834       C  0.86934610  0.04700111  0.68226214     0.03330
C1835       C  0.83654428  0.04844941  0.67365235    -0.12820
C1836       C  0.81334138  0.03527770  0.69388241     0.00830
C1837       C  0.82413268  0.02070398  0.72176781    -0.11350
C1838       C  0.85321381  0.02983697  0.73498883     0.03320
C1839       C  0.87695763  0.03971632  0.71413361    -0.10770
H1840       H  0.82943301  0.05856953  0.65111496     0.08920
H1841       H  0.80812176  0.00614947  0.73530705     0.06440
H1842       H  0.90076794  0.04112824  0.72307415     0.06290
C1843       C  0.55442594  0.22619722  0.82371009     0.03330
C1844       C  0.55261894  0.25897781  0.83160611    -0.12820
C1845       C  0.53998804  0.28040022  0.80940743     0.00830
C1846       C  0.52668038  0.26720474  0.78210719    -0.11350
C1847       C  0.53817942  0.23847259  0.76994209     0.03320
C1848       C  0.55062586  0.21667873  0.79177635    -0.10770
H1849       H  0.55991295  0.26724055  0.85471484     0.08920
H1850       H  0.51115369  0.28134546  0.76803168     0.06440
H1851       H  0.55604507  0.19262679  0.78443798     0.06290
C1852       C  0.53522499  0.37098552  0.81988941     0.03330
C1853       C  0.53444394  0.33839167  0.82920463    -0.12820
C1854       C  0.54656499  0.31556674  0.80835687     0.00830
C1855       C  0.56128304  0.32712507  0.78095565    -0.11350
C1856       C  0.55110462  0.35548750  0.76671699     0.03320
C1857       C  0.53939017  0.37896810  0.78727283    -0.10770
H1858       H  0.52640636  0.33138627  0.85261199     0.08920
H1859       H  0.57647398  0.31181019  0.76806084     0.06440
H1860       H  0.53498168  0.40288887  0.77866704     0.06290
C1861       C  0.53424711  0.22245658  0.68050509     0.03330
C1862       C  0.53168071  0.21570024  0.71346420    -0.12820
C1863       C  0.54430551  0.23757841  0.73495704     0.00830
C1864       C  0.56024533  0.26372123  0.72204140    -0.11350
C1865       C  0.55094871  0.27652192  0.69289062     0.03320
C1866       C  0.53946186  0.25464196  0.67061335    -0.10770
H1867       H  0.52150825  0.19352560  0.72187751     0.08920
H1868       H  0.57548774  0.27714352  0.73674531     0.06440
H1869       H  0.53589682  0.26197334  0.64626251     0.06290
C1870       C  0.56300249  0.36618480  0.67674367     0.03330
C1871       C  0.56018602  0.37598466  0.70890348    -0.12820
C1872       C  0.54754664  0.35447841  0.73116258     0.00830
C1873       C  0.53511922  0.32623576  0.71906254    -0.11390
C1874       C  0.54765797  0.31231085  0.69181311     0.03320
C1875       C  0.56027165  0.33329106  0.66906522    -0.10770
H1876       H  0.56622578  0.39999162  0.71590721     0.08920
H1877       H  0.52006768  0.31236903  0.73370104     0.06440
H1878       H  0.56649096  0.32476550  0.64571293     0.06290
O1879       O  0.99483097  0.45398254  0.49872136    -0.79930
O1880       O  0.99296463  0.13580031  0.50515432    -0.81490
O1881       O  0.95661985  0.04344682  0.55429469    -0.78500
O1882       O  0.95319764  0.04547763  0.95199837    -0.76890
O1883       O  0.99035439  0.04605510  0.91265144    -0.78680
O1884       O  0.99519213  0.04261119  0.59208553    -0.79610
O1885       O  0.95483535  0.09716560  0.50577913    -0.80940
O1886       O  0.95680964  0.49238858  0.49984885    -0.81230
Eu1887     Eu  0.98175866  0.04538567  0.50218263     2.39200
O1888       O  0.51224014  0.07940679  0.96933692    -0.88740
O1889       O  0.51438884  0.01227822  0.53329466    -0.92340
C1890       C  0.96565290  0.46295927  0.49815844     1.02350
C1891       C  0.96373875  0.12650254  0.50717334     1.02170
C1892       C  0.96580920  0.04264663  0.58331021     1.02110
C1893       C  0.96130302  0.04479651  0.92264060     0.99970
H1894       H  0.50124734  0.08978228  0.54734823     0.29720
O1895       O  0.51453136  0.07718058  0.53362733    -1.01120
H1896       H  0.49959547  0.00124763  0.95565440     0.29750
O1897       O  0.51313799  0.01424909  0.96869306    -1.03670
O1898       O  0.59849744  0.13678071  0.49844033    -0.80890
O1899       O  0.59767531  0.45467343  0.49887131    -0.80430
O1900       O  0.54425761  0.09734464  0.59127943    -0.78870
O1901       O  0.54415837  0.10008090  0.91056017    -0.82210
O1902       O  0.54123418  0.49666128  0.90822288    -0.80060
O1903       O  0.55014168  0.49173918  0.58987143    -0.78710
O1904       O  0.63671179  0.04326310  0.55139543    -0.80230
O1905       O  0.63450247  0.04920109  0.94580344    -0.82160
O1906       O  0.59934839  0.04319536  0.59065337    -0.78900
O1907       O  0.59539113  0.04926502  0.90862975    -0.81570
O1908       O  0.54392574  0.13649123  0.55333846    -0.77310
O1909       O  0.54890297  0.45405618  0.55076968    -0.77340
O1910       O  0.54387451  0.45711725  0.94572978    -0.76980
O1911       O  0.54444783  0.13790596  0.94943995    -0.80480
O1912       O  0.63661802  0.09814328  0.49675988    -0.79900
O1913       O  0.63571806  0.49334243  0.49974035    -0.78230
Eu1914     Eu  0.54568822  0.11074308  0.50139274     2.39770
Eu1915     Eu  0.54612999  0.48130980  0.49904348     2.39570
Eu1916     Eu  0.54708505  0.04482108  0.56501566     2.38400
Eu1917     Eu  0.54391807  0.04746679  0.93618934     2.39880
Eu1918     Eu  0.61013566  0.04608487  0.49910268     2.39790
O1919       O  0.57782460  0.01422589  0.96635197    -0.92650
O1920       O  0.57910278  0.07831585  0.53290038    -0.91540
C1921       C  0.62769261  0.12755535  0.49587909     1.02520
C1922       C  0.62685167  0.46391343  0.49985291     1.01240
C1923       C  0.54261426  0.12684920  0.58235138     1.00630
C1924       C  0.54470825  0.12915781  0.92015844     1.02640
C1925       C  0.54129969  0.46718702  0.91683815     1.01560
C1926       C  0.55062146  0.46270283  0.58000783     1.00410
C1927       C  0.62841938  0.04218768  0.58090442     1.00470
C1928       C  0.62483063  0.05073540  0.91673616     1.03080
H1929       H  0.59172900  0.00005711  0.54367755     0.30450
O1930       O  0.57816252  0.01353731  0.53102179    -1.04810
H1931       H  0.58945074  0.09217699  0.95502939     0.32500
O1932       O  0.57666241  0.07858737  0.96846710    -1.07370
C1933       C  0.53137033  0.39695655  0.63865970    -0.05580
C1934       C  0.56152639  0.39030473  0.65116816     0.00350
C1935       C  0.58838621  0.40694019  0.63972262    -0.08230
C1936       C  0.58399872  0.43063841  0.61632725    -0.05600
C1937       C  0.55371633  0.43741629  0.60409436     0.00330
C1938       C  0.52698260  0.42029387  0.61511614    -0.08130
C1939       C  0.99400481  0.42710945  0.60227054     0.62240
H1940       H  0.01113857  0.38378562  0.64778618     0.12940
H1941       H  0.60414517  0.44401402  0.60734115     0.12950
C1942       C  0.62127756  0.39917384  0.65194868     0.62480
F1943       F  0.97108390  0.40829703  0.61670054    -0.22690
F1944       F  0.99331169  0.42118811  0.57010331    -0.20020
F1945       F  0.98629186  0.45867208  0.60744644    -0.19700
F1946       F  0.62775804  0.36733199  0.64687514    -0.19750
F1947       F  0.62279449  0.40524448  0.68405403    -0.20070
F1948       F  0.64447073  0.41705023  0.63679415    -0.22740
C1949       C  0.51415099  0.19788203  0.63107838    -0.05580
C1950       C  0.53480599  0.19623177  0.65699739     0.00350
C1951       C  0.55815177  0.17169172  0.65814474    -0.08230
C1952       C  0.55932288  0.14936894  0.63348989    -0.05600
C1953       C  0.53907816  0.15132846  0.60734358     0.00330
C1954       C  0.51586915  0.17589082  0.60606738    -0.08130
C1955       C  0.49243579  0.17853218  0.57894883     0.62240
H1956       H  0.49690139  0.21698383  0.63038761     0.12940
H1957       H  0.57670349  0.13037555  0.63407273     0.12950
C1958       C  0.58284374  0.16952433  0.68435883     0.62480
F1959       F  0.46937423  0.20130829  0.58456874    -0.22690
F1960       F  0.47733095  0.14963378  0.57493464    -0.20020
F1961       F  0.50819015  0.18699745  0.55139591    -0.19700
F1962       F  0.56859862  0.16011422  0.71239868    -0.19750
F1963       F  0.59748100  0.19871555  0.68838174    -0.20070
F1964       F  0.60631525  0.14753168  0.67747153    -0.22740
C1965       C  0.50963498  0.41412618  0.85114284    -0.05580
C1966       C  0.53667426  0.39592941  0.84445039     0.00350
C1967       C  0.56541694  0.40193762  0.86090448    -0.08230
C1968       C  0.56562733  0.42501491  0.88483251    -0.05600
C1969       C  0.53866903  0.44312198  0.89165805     0.00330
C1970       C  0.51028548  0.43820262  0.87429876    -0.08130
C1971       C  0.98103674  0.45849873  0.87999889     0.62240
H1972       H  0.98817750  0.40955236  0.83783056     0.12940
H1973       H  0.58711499  0.42958354  0.89811187     0.12950
C1974       C  0.59604453  0.38467259  0.85263454     0.62480
F1975       F  0.95526864  0.44807720  0.86259662    -0.22690
F1976       F  0.98739811  0.48961314  0.87126359    -0.20020
F1977       F  0.97269478  0.45757346  0.91164210    -0.19700
F1978       F  0.60281157  0.38882808  0.82080685    -0.19750
F1979       F  0.59303776  0.35254289  0.85920754    -0.20070
F1980       F  0.62162081  0.39610515  0.86969848    -0.22740
C1981       C  0.57624850  0.15948822  0.88062756    -0.05580
C1982       C  0.54686857  0.15428951  0.89568371     0.00350
C1983       C  0.52037933  0.17295227  0.88715350    -0.08230
C1984       C  0.52429193  0.19672100  0.86395601    -0.05600
C1985       C  0.55367830  0.20192717  0.84900284     0.00330
C1986       C  0.58019175  0.18320525  0.85730978    -0.08130
C1987       C  0.61238883  0.18866845  0.84201929     0.62240
H1988       H  0.59631004  0.14505848  0.88754414     0.12940
H1989       H  0.00420918  0.21119325  0.85685706     0.12950
C1990       C  0.98812523  0.16720109  0.90213346     0.62480
F1991       F  0.63547374  0.16908861  0.85493677    -0.22690
F1992       F  0.62163036  0.21994502  0.84637520    -0.20020
F1993       F  0.61071958  0.18252902  0.80995546    -0.19700
F1994       F  0.99007768  0.17217178  0.93431231    -0.19750
F1995       F  0.97861918  0.13616593  0.89674693    -0.20070
F1996       F  0.96519171  0.18744138  0.89000234    -0.22740
C1997       C  0.88817931  0.03233463  0.62913487    -0.05580
C1998       C  0.89462955  0.04889004  0.65724570     0.00350
C1999       C  0.92528157  0.06296423  0.66095199    -0.08230
C2000       C  0.94785543  0.05921928  0.63660366    -0.05600
C2001       C  0.94091351  0.04325050  0.60834839     0.00330
C2002       C  0.91050239  0.02921472  0.60463199    -0.08130
C2003       C  0.90157298  0.00968408  0.57579576     0.62240
H2004       H  0.86532476  0.02083631  0.62672641     0.12940
H2005       H  0.97125663  0.06957518  0.63940388     0.12950
C2006       C  0.93570371  0.08184551  0.68972483     0.62480
F2007       F  0.89756628  0.02943620  0.54980391    -0.22690
F2008       F  0.92499742  0.98750541  0.56956929    -0.20020
F2009       F  0.87343893  0.99325728  0.58050403    -0.19700
F2010       F  0.95096660  0.06174070  0.71084353    -0.19750
F2011       F  0.91034889  0.09658099  0.70441275    -0.20070
F2012       F  0.95694066  0.10555786  0.68103972    -0.22740
C2013       C  0.70633017  0.04705911  0.62746064    -0.05580
C2014       C  0.69881000  0.02992392  0.65525374     0.00350
C2015       C  0.66817609  0.01593267  0.65786871    -0.08230
C2016       C  0.64602247  0.02111116  0.63334324    -0.05600
C2017       C  0.65363649  0.03836864  0.60558869     0.00330
C2018       C  0.68461209  0.05140971  0.60254722    -0.08130
C2019       C  0.69461847  0.07131076  0.57406465     0.62240
H2020       H  0.72947611  0.05815672  0.62577102     0.12940
H2021       H  0.62246234  0.01092281  0.63567174     0.12950
C2022       C  0.65779958  0.99528070  0.68563738     0.62480
F2023       F  0.72408078  0.08521927  0.57836460    -0.22690
F2024       F  0.67283183  0.09544628  0.56913553    -0.20020
F2025       F  0.69656420  0.05236908  0.54746216    -0.19700
F2026       F  0.64041528  0.01342281  0.70668630    -0.19750
F2027       F  0.68335675  0.98165490  0.70108678    -0.20070
F2028       F  0.63869784  0.97071324  0.67521928    -0.22740
C2029       C  0.66942804  0.07657489  0.84120083    -0.05580
C2030       C  0.70079330  0.06725324  0.84804975     0.00350
C2031       C  0.70637166  0.05096651  0.87745590    -0.08230
C2032       C  0.68104678  0.04742928  0.89905929    -0.05600
C2033       C  0.64960345  0.05533995  0.89142120     0.00330
C2034       C  0.64348719  0.06836587  0.86079834    -0.08130
C2035       C  0.61014452  0.07216269  0.84753138     0.62240
H2036       H  0.66494485  0.08921347  0.81932201     0.12940
H2037       H  0.68566011  0.03712334  0.92212852     0.12950
C2038       C  0.73790670  0.03553425  0.88646954     0.62480
F2039       F  0.61026298  0.08411405  0.81689382    -0.22690
F2040       F  0.59273347  0.09274684  0.86586808    -0.20020
F2041       F  0.59526982  0.04278453  0.84687581    -0.19700
F2042       F  0.75957045  0.05852401  0.89524649    -0.19750
F2043       F  0.74967037  0.01774972  0.86162409    -0.20070
F2044       F  0.73463840  0.01489555  0.91195143    -0.22740
C2045       C  0.88502660  0.02352437  0.87807266    -0.05580
C2046       C  0.89121999  0.03752666  0.84853234     0.00350
C2047       C  0.92004977  0.05466619  0.84375791    -0.08230
C2048       C  0.94185290  0.05630856  0.86874564    -0.05600
C2049       C  0.93580104  0.04234892  0.89840296     0.00330
C2050       C  0.90664625  0.02568751  0.90331717    -0.08130
C2051       C  0.89825700  0.00953733  0.93452877     0.62240
H2052       H  0.86269015  0.01110262  0.88126545     0.12940
H2053       H  0.96400424  0.06899116  0.86530978     0.12950
C2054       C  0.92779319  0.07230258  0.81301362     0.62480
F2055       F  0.87033222  0.99221339  0.93269316    -0.22690
F2056       F  0.89426739  0.03210303  0.95792359    -0.20020
F2057       F  0.92216804  0.98870724  0.94286960    -0.19700
F2058       F  0.90250101  0.09126038  0.80401940    -0.19750
F2059       F  0.93455267  0.05078611  0.78932316    -0.20070
F2060       F  0.95402986  0.09193471  0.81611642    -0.22740
C2061       C  0.70349515  0.41611328  0.99266751    -0.05580
C2062       C  0.69557363  0.38786814  0.50909132     0.00350
C2063       C  0.66504475  0.38525159  0.52315808    -0.08230
C2064       C  0.64329805  0.41032326  0.51869328    -0.05600
C2065       C  0.65148715  0.43866188  0.50253608     0.00330
C2066       C  0.68248408  0.44183736  0.98969560    -0.08130
C2067       C  0.69353951  0.47162460  0.97212955     0.62240
H2068       H  0.72657892  0.41778273  0.98146576     0.12940
H2069       H  0.61969702  0.40805513  0.52878048     0.12950
C2070       C  0.65440194  0.35701435  0.54315449     0.62480
F2071       F  0.72312049  0.46759795  0.45835194    -0.22690
F2072       F  0.69588193  0.99676274  0.49301004    -0.20020
F2073       F  0.67234780  0.97914601  0.94826584    -0.19700
F2074       F  0.67980575  0.34116249  0.55662377    -0.19750
F2075       F  0.63723017  0.33622661  0.02455304    -0.20070
F2076       F  0.63509081  0.36709577  0.06771761    -0.22740
C2077       C  0.68321984  0.14569165  0.00348710    -0.05580
C2078       C  0.65319088  0.15187197  0.49061075     0.00350
C2079       C  0.64941808  0.17910026  0.47089003    -0.08230
C2080       C  0.67610179  0.19804282  0.46376419    -0.05600
C2081       C  0.70570544  0.19327605  0.47839400     0.00330
C2082       C  0.70923984  0.16638511  0.99907503    -0.08130
C2083       C  0.73943242  0.15926245  0.01764538     0.62240
H2084       H  0.68599687  0.12448899  0.01783596     0.12940
H2085       H  0.67353983  0.21790226  0.44755895     0.12950
C2086       C  0.61752040  0.18834011  0.45722247     0.62480
F2087       F  0.73483081  0.13542605  0.53991743    -0.22690
F2088       F  0.74935138  0.18593186  0.53389365    -0.20020
F2089       F  0.76303424  0.14893326  0.99740785    -0.19700
F2090       F  0.59704383  0.19682354  0.48140192    -0.19750
F2091       F  0.60526774  0.16284497  0.94109514    -0.20070
F2092       F  0.61963123  0.21382382  0.93634444    -0.22740
C2093       C  0.94562983  0.18146000  0.99794919    -0.05580
C2094       C  0.93907546  0.15168166  0.51128582     0.00350
C2095       C  0.91042372  0.14732466  0.52880541    -0.08230
C2096       C  0.88911311  0.17307389  0.53134981    -0.05600
C2097       C  0.89509635  0.20250700  0.01627678     0.00330
C2098       C  0.92403825  0.20672141  0.99904853    -0.08130
C2099       C  0.93225593  0.23660736  0.98001537     0.62240
H2100       H  0.96804072  0.18486917  0.98594625     0.12940
H2101       H  0.86701774  0.17013114  0.54421577     0.12950
C2102       C  0.90208583  0.11599653  0.54501043     0.62480
F2103       F  0.95699388  0.23155552  0.95892638    -0.22690
F2104       F  0.93730776  0.26185575  0.49999279    -0.20020
F2105       F  0.90645952  0.24620754  0.96223039    -0.19700
F2106       F  0.92683129  0.10634678  0.56422114    -0.19750
F2107       F  0.89612742  0.09303108  0.02246829    -0.20070
F2108       F  0.87524375  0.11854684  0.56383124    -0.22740
C2109       C  0.90910327  0.44748016  0.50305190    -0.05580
C2110       C  0.94013217  0.43835200  0.49485214     0.00350
C2111       C  0.94506463  0.40721963  0.98251231    -0.08230
C2112       C  0.91858048  0.38721099  0.97844579    -0.05600
C2113       C  0.88803728  0.39533382  0.48924598     0.00330
C2114       C  0.88303969  0.42666262  0.50129358    -0.08130
C2115       C  0.85100685  0.43882458  0.51311507     0.62240
H2116       H  0.90534227  0.47137700  0.51162642     0.12940
H2117       H  0.92189673  0.36405454  0.96791561     0.12950
C2118       C  0.97779572  0.39409560  0.97445630     0.62480
F2119       F  0.85343447  0.46826472  0.52735379    -0.22690
F2120       F  0.83831990  0.41811498  0.53537307    -0.20020
F2121       F  0.83041620  0.44265870  0.98800529    -0.19700
F2122       F  0.49619240  0.39279114  0.50151724    -0.19750
F2123       F  0.49239423  0.41306295  0.95196453    -0.20070
F2124       F  0.97634741  0.36354323  0.96237636    -0.22740
C2125       C  0.86437590  0.86883669  0.99315616     0.03330
C2126       C  0.87451256  0.83800586  0.50314360    -0.12820
C2127       C  0.85230674  0.81624988  0.51510619     0.00830
C2128       C  0.82208413  0.82833330  0.52222866    -0.11350
C2129       C  0.80975997  0.85324173  0.00376912     0.03320
C2130       C  0.83142834  0.87326869  0.98819591    -0.10770
H2131       H  0.89907104  0.83066085  0.50173001     0.08920
H2132       H  0.80657961  0.81488172  0.53744478     0.06440
H2133       H  0.82273124  0.89173414  0.97270475     0.06290
C2134       C  0.86858336  0.72606542  0.51485885     0.03330
C2135       C  0.87380953  0.75881727  0.52154483    -0.12820
C2136       C  0.85399191  0.78153400  0.50729558     0.00830
C2137       C  0.83141543  0.77024837  0.48603582    -0.11350
C2138       C  0.81818163  0.73991821  0.49040245     0.03320
C2139       C  0.83826287  0.71663282  0.50326716    -0.10770
H2140       H  0.89341336  0.76630740  0.53622803     0.08920
H2141       H  0.81939564  0.78708785  0.47146097     0.06440
H2142       H  0.83093676  0.69191410  0.50341380     0.06290
C2143       C  0.72927332  0.72016149  0.97666642     0.03330
C2144       C  0.76286249  0.71509542  0.97660052    -0.12820
C2145       C  0.78248578  0.73839540  0.99019679     0.00830
C2146       C  0.76720693  0.76475091  0.00293435    -0.11350
C2147       C  0.73892262  0.77567908  0.99012431     0.03320
C2148       C  0.71820109  0.75236158  0.97889954    -0.10770
H2149       H  0.77316926  0.69355963  0.96738932     0.08920
H2150       H  0.78020289  0.78030153  0.01768834     0.06440
H2151       H  0.69390872  0.75899206  0.97396281     0.06290
C2152       C  0.71979148  0.86193628  0.00801065     0.03330
C2153       C  0.75233903  0.87035446  0.01096487    -0.12820
C2154       C  0.77538094  0.85207924  0.99569643     0.00830
C2155       C  0.76481415  0.82656599  0.97759244    -0.11350
C2156       C  0.73644193  0.81114733  0.98600685     0.03320
C2157       C  0.71224626  0.83026790  0.99863334    -0.10770
H2158       H  0.75930441  0.89198103  0.02297938     0.08920
H2159       H  0.78113891  0.81454520  0.96236658     0.06440
H2160       H  0.68843087  0.82089462  0.00017164     0.06290
C2161       C  0.86560790  0.53750281  0.32450706     0.03330
C2162       C  0.83497978  0.54982677  0.33196594    -0.12820
C2163       C  0.81577303  0.56094230  0.30716192     0.00830
C2164       C  0.83039525  0.56313623  0.27733061    -0.11350
C2165       C  0.85298058  0.54045607  0.26869295     0.03320
C2166       C  0.87186814  0.52798047  0.29294088    -0.10770
H2167       H  0.82673098  0.55136683  0.35621298     0.08920
H2168       H  0.81953797  0.57704527  0.25922160     0.06440
H2169       H  0.89170101  0.51261367  0.28739849     0.06290
C2170       C  0.72502392  0.56946925  0.32167988     0.03330
C2171       C  0.75823131  0.57324315  0.32779677    -0.12820
C2172       C  0.78005621  0.55924558  0.30683166     0.00830
C2173       C  0.76713806  0.54313684  0.28129582    -0.11350
C2174       C  0.73871751  0.55291948  0.26794095     0.03320
C2175       C  0.71579112  0.56386962  0.28938083    -0.10770
H2176       H  0.76666259  0.58527414  0.34860333     0.08920
H2177       H  0.78190065  0.52776885  0.26819043     0.06440
H2178       H  0.69154765  0.56597617  0.28135893     0.06290
C2179       C  0.72293016  0.53116517  0.18130464     0.03330
C2180       C  0.71456215  0.54071518  0.21265918    -0.12820
C2181       C  0.73812710  0.55365837  0.23219364     0.00830
C2182       C  0.76690630  0.56177639  0.21743754    -0.11350
C2183       C  0.77857060  0.54338727  0.19265271     0.03320
C2184       C  0.75588352  0.52829497  0.17360027    -0.10770
H2185       H  0.69048398  0.53940766  0.22133267     0.08920
H2186       H  0.78267468  0.57747415  0.22933736     0.06440
H2187       H  0.76339231  0.51625572  0.15224714     0.06290
C2188       C  0.86934635  0.54700420  0.18226031     0.03330
C2189       C  0.83654448  0.54845168  0.17365024    -0.12820
C2190       C  0.81334182  0.53527906  0.19388014     0.00830
C2191       C  0.82413347  0.52070477  0.22176497    -0.11350
C2192       C  0.85321385  0.52983875  0.23498660     0.03320
C2193       C  0.87695765  0.53971964  0.21413195    -0.10770
H2194       H  0.82943311  0.55857169  0.15111285     0.08920
H2195       H  0.80812302  0.50614922  0.23530355     0.06440
H2196       H  0.90076779  0.54113247  0.22307288     0.06290
C2197       C  0.55443651  0.72619365  0.32370825     0.03330
C2198       C  0.55263513  0.75897463  0.33160466    -0.12820
C2199       C  0.54000550  0.78039922  0.30940714     0.00830
C2200       C  0.52669351  0.76720586  0.28210818    -0.11350
C2201       C  0.53818771  0.73847247  0.26994158     0.03320
C2202       C  0.55063258  0.71667629  0.29177454    -0.10770
H2203       H  0.55993175  0.76723601  0.35471305     0.08920
H2204       H  0.51116700  0.78134858  0.26803455     0.06440
H2205       H  0.55604711  0.69262358  0.28443533     0.06290
C2206       C  0.53524352  0.87098399  0.31989038     0.03330
C2207       C  0.53446360  0.83839008  0.32920528    -0.12820
C2208       C  0.54658473  0.81556546  0.30835724     0.00830
C2209       C  0.56130178  0.82712422  0.28095536    -0.11350
C2210       C  0.55112285  0.85548711  0.26671748     0.03320
C2211       C  0.53940825  0.87896704  0.28727394    -0.10770
H2212       H  0.52642575  0.83138426  0.35261243     0.08920
H2213       H  0.57649270  0.81180966  0.26805983     0.06440
H2214       H  0.53499842  0.90288768  0.27866846     0.06290
C2215       C  0.53425053  0.72245787  0.18050419     0.03330
C2216       C  0.53168495  0.71570126  0.21346337    -0.12820
C2217       C  0.54431117  0.73757879  0.23495600     0.00830
C2218       C  0.56025112  0.76372132  0.22204004    -0.11350
C2219       C  0.55095393  0.77652275  0.19288980     0.03320
C2220       C  0.53946585  0.75464330  0.17061257    -0.10770
H2221       H  0.52151235  0.69352672  0.22187678     0.08920
H2222       H  0.57549357  0.77714341  0.23674395     0.06440
H2223       H  0.53590054  0.76197494  0.14626185     0.06290
C2224       C  0.56301220  0.86618543  0.17674269     0.03330
C2225       C  0.56020020  0.87598467  0.20890314    -0.12820
C2226       C  0.54756196  0.85447871  0.23116328     0.00830
C2227       C  0.53513101  0.82623745  0.21906397    -0.11390
C2228       C  0.54766567  0.81231207  0.19181288     0.03320
C2229       C  0.56027817  0.83329194  0.16906389    -0.10770
H2230       H  0.56624245  0.89999104  0.21590673     0.08920
H2231       H  0.52007969  0.81237184  0.23370367     0.06440
H2232       H  0.56649421  0.82476642  0.14571073     0.06290
O2233       O  0.99483540  0.95398062  0.99872501    -0.79930
O2234       O  0.99296778  0.63580220  0.00515422    -0.81490
O2235       O  0.95662261  0.54344868  0.05429479    -0.78500
O2236       O  0.95319573  0.54547567  0.45199675    -0.76890
O2237       O  0.99035300  0.54605303  0.41265055    -0.78680
O2238       O  0.99519451  0.54261258  0.09208602    -0.79610
O2239       O  0.95483859  0.59716737  0.00577835    -0.80940
O2240       O  0.95681369  0.99238638  0.99985197    -0.81230
Eu2241     Eu  0.98176090  0.54538819  0.00218253     2.39200
O2242       O  0.51223634  0.57940354  0.46933849    -0.88740
O2243       O  0.51438900  0.51227682  0.03329490    -0.92340
C2244       C  0.96565753  0.96295736  0.99816116     1.02350
C2245       C  0.96374201  0.62650411  0.00717277     1.02170
C2246       C  0.96581168  0.54264816  0.08331039     1.02110
C2247       C  0.96130140  0.54479480  0.42263911     0.99970
H2248       H  0.50124855  0.58978063  0.04734891     0.29720
O2249       O  0.51453180  0.57717951  0.03362668    -1.01120
H2250       H  0.49959275  0.50124797  0.45565738     0.29750
O2251       O  0.51313303  0.51424739  0.46869393    -1.03670
O2252       O  0.59849778  0.63678140  0.99844086    -0.80890
O2253       O  0.59768291  0.95467683  0.99887083    -0.80430
O2254       O  0.54425857  0.59734469  0.09127894    -0.78870
O2255       O  0.54415528  0.60007815  0.41056005    -0.82210
O2256       O  0.54123694  0.99666113  0.40822328    -0.80060
O2257       O  0.55014832  0.99174104  0.08987089    -0.78710
O2258       O  0.63671250  0.54326339  0.05139364    -0.80230
O2259       O  0.63449776  0.54919565  0.44580427    -0.82160
O2260       O  0.59934942  0.54319540  0.09065189    -0.78900
O2261       O  0.59538600  0.54926090  0.40863079    -0.81570
O2262       O  0.54392652  0.63649132  0.05333794    -0.77310
O2263       O  0.54891124  0.95405808  0.05076949    -0.77340
O2264       O  0.54387759  0.95711787  0.44573081    -0.76980
O2265       O  0.54444421  0.63790366  0.44943976    -0.80480
O2266       O  0.63661853  0.59814424  0.99675950    -0.79900
O2267       O  0.63572497  0.99334627  0.99973957    -0.78230
Eu2268     Eu  0.54568959  0.61074216  0.00139251     2.39770
Eu2269     Eu  0.54613742  0.98131110  0.99904373     2.39570
Eu2270     Eu  0.54708570  0.54482079  0.06501499     2.38400
Eu2271     Eu  0.54391216  0.54746357  0.43619091     2.39880
Eu2272     Eu  0.61013581  0.54608530  0.99910135     2.39790
O2273       O  0.57781772  0.51422446  0.46635419    -0.92650
O2274       O  0.57910371  0.57831573  0.03290008    -0.91540
C2275       C  0.62769305  0.62755638  0.99587948     1.02520
C2276       C  0.62685896  0.96391724  0.99985220     1.01240
C2277       C  0.54261520  0.62684933  0.08235093     1.00630
C2278       C  0.54470575  0.62915539  0.42015806     1.02640
C2279       C  0.54130356  0.96718698  0.41683889     1.01560
C2280       C  0.55062913  0.96270477  0.08000751     1.00410
C2281       C  0.62842030  0.54218774  0.08090264     1.00470
C2282       C  0.62482582  0.55073009  0.41673692     1.03080
H2283       H  0.59172902  0.50005753  0.04367541     0.30450
O2284       O  0.57816198  0.51353732  0.03101975    -1.04810
H2285       H  0.58944464  0.59217191  0.45503143     0.32500
O2286       O  0.57665711  0.57858359  0.46846832    -1.07370
C2287       C  0.53137814  0.89696243  0.13866410    -0.05580
C2288       C  0.56153528  0.89030620  0.15116776     0.00350
C2289       C  0.58839556  0.90693812  0.13971800    -0.08230
C2290       C  0.58400776  0.93063631  0.11632252    -0.05600
C2291       C  0.55372441  0.93741831  0.10409419     0.00330
C2292       C  0.52698995  0.92030030  0.11512103    -0.08130
C2293       C  0.99401578  0.92711735  0.10228824     0.62240
H2294       H  0.01115738  0.88379084  0.14779855     0.12940
H2295       H  0.60415470  0.94400885  0.10733297     0.12950
C2296       C  0.62128763  0.89916839  0.15194009     0.62480
F2297       F  0.97109674  0.90830715  0.11672408    -0.22690
F2298       F  0.99331232  0.92119785  0.07012087    -0.20020
F2299       F  0.98630852  0.95868072  0.10746804    -0.19700
F2300       F  0.62776444  0.86732599  0.14686533    -0.19750
F2301       F  0.62280893  0.90523837  0.18404535    -0.20070
F2302       F  0.64448075  0.91704290  0.13678325    -0.22740
C2303       C  0.51415360  0.69788332  0.13107761    -0.05580
C2304       C  0.53480887  0.69623301  0.15699644     0.00350
C2305       C  0.55815427  0.67169255  0.15814375    -0.08230
C2306       C  0.55932460  0.64936937  0.13348919    -0.05600
C2307       C  0.53907955  0.65132884  0.10734310     0.00330
C2308       C  0.51587103  0.67589175  0.10606681    -0.08130
C2309       C  0.49243738  0.67853331  0.07894843     0.62240
H2310       H  0.49690433  0.71698543  0.13038680     0.12940
H2311       H  0.57670492  0.63037571  0.13407206     0.12950
C2312       C  0.58284670  0.66952511  0.18435746     0.62480
F2313       F  0.46937618  0.70130977  0.08456836    -0.22690
F2314       F  0.47733214  0.64963507  0.07493467    -0.20020
F2315       F  0.50819148  0.68699826  0.05139527    -0.19700
F2316       F  0.56860204  0.66011502  0.21239756    -0.19750
F2317       F  0.59748414  0.69871627  0.18838014    -0.20070
F2318       F  0.60631803  0.64753240  0.17746978    -0.22740
C2319       C  0.50964837  0.91412423  0.35114029    -0.05580
C2320       C  0.53668899  0.89592804  0.34445147     0.00350
C2321       C  0.56542946  0.90193747  0.36090884    -0.08230
C2322       C  0.56563614  0.92501501  0.38483670    -0.05600
C2323       C  0.53867642  0.94312136  0.39165883     0.00330
C2324       C  0.51029523  0.93820106  0.37429597    -0.08130
C2325       C  0.98104959  0.95848951  0.37998731     0.62240
H2326       H  0.98820640  0.90954496  0.33781909     0.12940
H2327       H  0.58712208  0.92958450  0.39811854     0.12950
C2328       C  0.59605873  0.88467372  0.35264234     0.62480
F2329       F  0.95528698  0.94806531  0.36257859    -0.22690
F2330       F  0.98740825  0.98960547  0.37125541    -0.20020
F2331       F  0.97270055  0.95756121  0.41162864    -0.19700
F2332       F  0.60282882  0.88882886  0.32081524    -0.19750
F2333       F  0.59305285  0.85254400  0.35921568    -0.20070
F2334       F  0.62163272  0.89610789  0.36970865    -0.22740
C2335       C  0.57624857  0.65947782  0.38062284    -0.05580
C2336       C  0.54686928  0.65428698  0.39568291     0.00350
C2337       C  0.52038409  0.67295719  0.38715609    -0.08230
C2338       C  0.52430006  0.69672495  0.36395810    -0.05600
C2339       C  0.55368579  0.70192327  0.34900099     0.00330
C2340       C  0.58019519  0.68319386  0.35730445    -0.08130
C2341       C  0.61239186  0.68864828  0.34201007     0.62240
H2342       H  0.59630730  0.64504325  0.38753767     0.12940
H2343       H  0.00423748  0.71121800  0.35686957     0.12950
C2344       C  0.98814416  0.66723753  0.40215324     0.62480
F2345       F  0.63547316  0.66906254  0.35492517    -0.22690
F2346       F  0.62164218  0.71992249  0.34636434    -0.20020
F2347       F  0.61071723  0.68250870  0.30994659    -0.19700
F2348       F  0.99011034  0.67221577  0.43433093    -0.19750
F2349       F  0.97861904  0.63620628  0.39677567    -0.20070
F2350       F  0.96521735  0.68748816  0.39002658    -0.22740
C2351       C  0.88818061  0.53233728  0.12913332    -0.05580
C2352       C  0.89463016  0.54889316  0.15724407     0.00350
C2353       C  0.92528220  0.56296722  0.16095085    -0.08230
C2354       C  0.94785687  0.55922134  0.13660338    -0.05600
C2355       C  0.94091563  0.54325211  0.10834821     0.00330
C2356       C  0.91050447  0.52921660  0.10463118    -0.08130
C2357       C  0.90157583  0.50968541  0.07579505     0.62240
H2358       H  0.86532603  0.52083915  0.12672438     0.12940
H2359       H  0.97125805  0.56957719  0.13940406     0.12950
C2360       C  0.93570336  0.58184984  0.18972313     0.62480
F2361       F  0.89756974  0.52943704  0.04980274    -0.22690
F2362       F  0.92500048  0.48750668  0.06956952    -0.20020
F2363       F  0.87344170  0.49325864  0.08050291    -0.19700
F2364       F  0.95096686  0.56174632  0.21084260    -0.19750
F2365       F  0.91034789  0.59658481  0.20441042    -0.20070
F2366       F  0.95693942  0.60556274  0.18103728    -0.22740
C2367       C  0.70633106  0.54705833  0.12745859    -0.05580
C2368       C  0.69881133  0.52992131  0.15525070     0.00350
C2369       C  0.66817785  0.51592904  0.15786491    -0.08230
C2370       C  0.64602396  0.52110874  0.13334002    -0.05600
C2371       C  0.65363753  0.53836803  0.10558650     0.00330
C2372       C  0.68461286  0.55140975  0.10254547    -0.08130
C2373       C  0.69461882  0.57131224  0.07406375     0.62240
H2374       H  0.72947667  0.55815672  0.12576956     0.12940
H2375       H  0.62246409  0.51091965  0.13566800     0.12950
C2376       C  0.65780208  0.49527438  0.18563187     0.62480
F2377       F  0.72408098  0.58522092  0.07836416    -0.22690
F2378       F  0.67283181  0.59544767  0.06913583    -0.20020
F2379       F  0.69656467  0.55237181  0.04746038    -0.19700
F2380       F  0.64041560  0.51341367  0.20668143    -0.19750
F2381       F  0.68335971  0.48164948  0.20108129    -0.20070
F2382       F  0.63870270  0.47070617  0.17521128    -0.22740
C2383       C  0.66942302  0.57656258  0.34119877    -0.05580
C2384       C  0.70078885  0.56724344  0.34804894     0.00350
C2385       C  0.70636744  0.55096005  0.37745693    -0.08230
C2386       C  0.68104262  0.54742479  0.39906077    -0.05600
C2387       C  0.64959888  0.55533299  0.39142158     0.00330
C2388       C  0.64348229  0.56835416  0.36079681    -0.08130
C2389       C  0.61013960  0.57214580  0.34752818     0.62240
H2390       H  0.66493916  0.58919889  0.31931886     0.12940
H2391       H  0.68565647  0.53712216  0.42213134     0.12950
C2392       C  0.73790259  0.53552914  0.38647239     0.62480
F2393       F  0.61025817  0.58409037  0.31688804    -0.22690
F2394       F  0.59272632  0.59273278  0.36585976    -0.20020
F2395       F  0.59526701  0.54276637  0.34687843    -0.19700
F2396       F  0.75956530  0.55851997  0.39524917    -0.19750
F2397       F  0.74966776  0.51774374  0.36162827    -0.20070
F2398       F  0.73463382  0.51489147  0.41195506    -0.22740
C2399       C  0.88502587  0.52352035  0.37807040    -0.05580
C2400       C  0.89121864  0.53752346  0.34853036     0.00350
C2401       C  0.92004762  0.55466450  0.34375623    -0.08230
C2402       C  0.94185060  0.55630756  0.36874411    -0.05600
C2403       C  0.93579935  0.54234708  0.39840120     0.00330
C2404       C  0.90664526  0.52568430  0.40331501    -0.08130
C2405       C  0.89825663  0.50953332  0.43452633     0.62240
H2406       H  0.86269007  0.51109738  0.38126294     0.12940
H2407       H  0.96400137  0.56899129  0.36530863     0.12950
C2408       C  0.92779041  0.57230170  0.31301221     0.62480
F2409       F  0.87033282  0.49220788  0.43269036    -0.22690
F2410       F  0.89426570  0.53209853  0.45792140    -0.20020
F2411       F  0.92216873  0.48870445  0.44286697    -0.19700
F2412       F  0.90249733  0.59125823  0.30401789    -0.19750
F2413       F  0.93455143  0.55078589  0.28932159    -0.20070
F2414       F  0.95402595  0.59193525  0.31611553    -0.22740
C2415       C  0.70349171  0.91611020  0.49266456    -0.05580
C2416       C  0.69558097  0.88787253  0.00909229     0.00350
C2417       C  0.66505341  0.88525764  0.02316201    -0.08230
C2418       C  0.64330648  0.91032897  0.01869653    -0.05600
C2419       C  0.65149448  0.93866594  0.00253587     0.00330
C2420       C  0.68248167  0.94183526  0.48969462    -0.08130
C2421       C  0.69353784  0.97162319  0.47213019     0.62240
H2422       H  0.72657523  0.91777938  0.48146225     0.12940
H2423       H  0.61970631  0.90806203  0.02878605     0.12950
C2424       C  0.65441241  0.85702273  0.04316259     0.62480
F2425       F  0.72312411  0.96759740  0.95834302    -0.22690
F2426       F  0.69588289  0.49676545  0.99300792    -0.20020
F2427       F  0.67234507  0.47914714  0.44827121    -0.19700
F2428       F  0.67981745  0.84117035  0.05662895    -0.19750
F2429       F  0.63722734  0.83622266  0.52454601    -0.20070
F2430       F  0.63508433  0.86708995  0.56771164    -0.22740
C2431       C  0.68321532  0.64568774  0.50348578    -0.05580
C2432       C  0.65319118  0.65187365  0.99061206     0.00350
C2433       C  0.64941789  0.67910312  0.97089294    -0.08230
C2434       C  0.67610151  0.69804596  0.96376716    -0.05600
C2435       C  0.70570534  0.69327896  0.97839653     0.00330
C2436       C  0.70923579  0.66638039  0.49907320    -0.08130
C2437       C  0.73942875  0.65925608  0.51764236     0.62240
H2438       H  0.68599182  0.62448532  0.51783505     0.12940
H2439       H  0.67353923  0.71790591  0.94756260     0.12950
C2440       C  0.61751960  0.68834459  0.95722784     0.62480
F2441       F  0.73482886  0.63543204  0.03992322    -0.22690
F2442       F  0.74934897  0.68593769  0.03389716    -0.20020
F2443       F  0.76302952  0.64892693  0.49740358    -0.19700
F2444       F  0.59704495  0.69682744  0.98140910    -0.19750
F2445       F  0.60526715  0.66283685  0.44108968    -0.20070
F2446       F  0.61962937  0.71381590  0.43633671    -0.22740
C2447       C  0.94544313  0.68166099  0.49788506    -0.05580
C2448       C  0.93907850  0.65168245  0.01128484     0.00350
C2449       C  0.91042649  0.64732449  0.02880368    -0.08230
C2450       C  0.88911523  0.67307309  0.03134755    -0.05600
C2451       C  0.89487494  0.70246270  0.51639403     0.00330
C2452       C  0.92355043  0.70678869  0.49895430    -0.08130
C2453       C  0.93079956  0.73689903  0.47987085     0.62240
H2454       H  0.96777382  0.68519848  0.48577120     0.12940
H2455       H  0.86701975  0.67012987  0.04421320     0.12950
C2456       C  0.90208912  0.61599611  0.04500857     0.62480
F2457       F  0.95697149  0.73312905  0.46032002    -0.22690
F2458       F  0.93730946  0.76185572  0.99998968    -0.20020
F2459       F  0.90531604  0.74464691  0.46072867    -0.19700
F2460       F  0.92683448  0.60634712  0.06421982    -0.19750
F2461       F  0.89612793  0.59302693  0.52247085    -0.20070
F2462       F  0.87524660  0.61854568  0.06382882    -0.22740
C2463       C  0.90910853  0.94747845  0.00305216    -0.05580
C2464       C  0.94013764  0.93835015  0.99485394     0.00350
C2465       C  0.94506120  0.90721759  0.48251407    -0.08230
C2466       C  0.91857729  0.88720785  0.47844801    -0.05600
C2467       C  0.88804341  0.89533195  0.98924621     0.00330
C2468       C  0.88304530  0.92666077  0.00129357    -0.08130
C2469       C  0.85101234  0.93882259  0.01311485     0.62240
H2470       H  0.90534696  0.97137547  0.01162597     0.12940
H2471       H  0.92189365  0.86405067  0.46791937     0.12950
C2472       C  0.97779257  0.89409425  0.47445842     0.62480
F2473       F  0.85343988  0.96826241  0.02735423    -0.22690
F2474       F  0.83832507  0.91811263  0.03537233    -0.20020
F2475       F  0.83041159  0.94265474  0.48800881    -0.19700
F2476       F  0.49619919  0.89279267  0.00151901    -0.19750
F2477       F  0.49240588  0.91306836  0.45196220    -0.20070
F2478       F  0.97634483  0.86354185  0.46237860    -0.22740
C2479       C  0.86437120  0.86883953  0.49315885     0.03330
C2480       C  0.87451643  0.83800272  0.00314075    -0.12820
C2481       C  0.85230987  0.81624765  0.01510358     0.00830
C2482       C  0.82208787  0.82833231  0.02222629    -0.11350
C2483       C  0.80975554  0.85324286  0.50377202     0.03320
C2484       C  0.83142340  0.87327068  0.48819909    -0.10770
H2485       H  0.89907470  0.83065702  0.00172719     0.08920
H2486       H  0.80658318  0.81488184  0.03744314     0.06440
H2487       H  0.82272561  0.89173578  0.47270796     0.06290
C2488       C  0.86858433  0.72606315  0.01485645     0.03330
C2489       C  0.87381120  0.75881485  0.02154213    -0.12820
C2490       C  0.85399352  0.78153169  0.00729346     0.00830
C2491       C  0.83141569  0.77024626  0.98603499    -0.11350
C2492       C  0.81818133  0.73991652  0.99040270     0.03320
C2493       C  0.83826300  0.71663081  0.00326643    -0.10770
H2494       H  0.89341572  0.76630476  0.03622452     0.08920
H2495       H  0.81939588  0.78708573  0.97146027     0.06440
H2496       H  0.83093656  0.69191219  0.00341362     0.06290
C2497       C  0.72927517  0.72016035  0.47666224     0.03330
C2498       C  0.76286444  0.71509531  0.47659778    -0.12820
C2499       C  0.78248630  0.73839606  0.49019471     0.00830
C2500       C  0.76720611  0.76475104  0.50293157    -0.11350
C2501       C  0.73892214  0.77567818  0.49012018     0.03320
C2502       C  0.71820183  0.75236006  0.47889469    -0.10770
H2503       H  0.77317237  0.69355981  0.46738723     0.08920
H2504       H  0.78020085  0.78030212  0.51768617     0.06440
H2505       H  0.69390941  0.75898974  0.47395710     0.06290
C2506       C  0.71978597  0.86193243  0.50801044     0.03330
C2507       C  0.75233308  0.87035179  0.51096717    -0.12820
C2508       C  0.77537672  0.85207898  0.49569825     0.00830
C2509       C  0.76481204  0.82656668  0.47759173    -0.11350
C2510       C  0.73643998  0.81114624  0.48600353     0.03320
C2511       C  0.71224277  0.83026467  0.49862996    -0.10770
H2512       H  0.75929682  0.89197766  0.52298384     0.08920
H2513       H  0.78113841  0.81454742  0.46236629     0.06440
H2514       H  0.68842777  0.82089011  0.50016580     0.06290
C2515       C  0.86560827  0.53750912  0.82451061     0.03330
C2516       C  0.83497964  0.54983203  0.83196937    -0.12820
C2517       C  0.81577223  0.56094597  0.80716512     0.00830
C2518       C  0.83039420  0.56313964  0.77733372    -0.11350
C2519       C  0.85298005  0.54045988  0.76869652     0.03320
C2520       C  0.87186855  0.52798603  0.79294463    -0.10770
H2521       H  0.82673091  0.55137240  0.85621642     0.08920
H2522       H  0.81953643  0.57704794  0.75922445     0.06440
H2523       H  0.89170192  0.51261978  0.78740251     0.06290
C2524       C  0.72502295  0.56947082  0.82168251     0.03330
C2525       C  0.75823015  0.57324542  0.82779972    -0.12820
C2526       C  0.78005542  0.55924807  0.80683492     0.00830
C2527       C  0.76713765  0.54313847  0.78129934    -0.11350
C2528       C  0.73871670  0.55291991  0.76794421     0.03320
C2529       C  0.71579016  0.56387020  0.78938376    -0.10770
H2530       H  0.76666092  0.58527661  0.84860644     0.08920
H2531       H  0.78190064  0.52777060  0.76819436     0.06440
H2532       H  0.69154649  0.56597604  0.78136214     0.06290
C2533       C  0.72292896  0.53116516  0.68130766     0.03330
C2534       C  0.71456101  0.54071491  0.71266238    -0.12820
C2535       C  0.73812609  0.55365796  0.73219689     0.00830
C2536       C  0.76690506  0.56177612  0.71744068    -0.11350
C2537       C  0.77856947  0.54338672  0.69265625     0.03320
C2538       C  0.75588242  0.52829457  0.67360358    -0.10770
H2539       H  0.69048288  0.53940764  0.72133591     0.08920
H2540       H  0.78267330  0.57747419  0.72934022     0.06440
H2541       H  0.76339129  0.51625538  0.65225044     0.06290
C2542       C  0.86934507  0.54700528  0.68226347     0.03330
C2543       C  0.83654306  0.54845203  0.67365374    -0.12820
C2544       C  0.81334084  0.53527919  0.69388389     0.00830
C2545       C  0.82413298  0.52070617  0.72176923    -0.11350
C2546       C  0.85321318  0.52984144  0.73499047     0.03320
C2547       C  0.87695662  0.53972208  0.71413537    -0.10770
H2548       H  0.82943123  0.55857143  0.65111622     0.08920
H2549       H  0.80812311  0.50615032  0.73530817     0.06440
H2550       H  0.90076657  0.54113541  0.72307636     0.06290
C2551       C  0.55441949  0.72619468  0.82371363     0.03330
C2552       C  0.55261330  0.75897522  0.83161030    -0.12820
C2553       C  0.53998378  0.78039853  0.80941156     0.00830
C2554       C  0.52667617  0.76720372  0.78211092    -0.11350
C2555       C  0.53817469  0.73847149  0.76994542     0.03320
C2556       C  0.55062014  0.71667696  0.79177956    -0.10770
H2557       H  0.55990703  0.76723725  0.85471937     0.08920
H2558       H  0.51114968  0.78134485  0.76803567     0.06440
H2559       H  0.55603936  0.69262511  0.78444087     0.06290
C2560       C  0.53522471  0.87098441  0.81989468     0.03330
C2561       C  0.53444256  0.83839044  0.82920977    -0.12820
C2562       C  0.54656184  0.81556505  0.80836136     0.00830
C2563       C  0.56127962  0.82712322  0.78095992    -0.11350
C2564       C  0.55110184  0.85548609  0.76672163     0.03320
C2565       C  0.53938898  0.87896697  0.78727797    -0.10770
H2566       H  0.52640543  0.83138525  0.85261735     0.08920
H2567       H  0.57647010  0.81180817  0.76806489     0.06440
H2568       H  0.53498116  0.90288796  0.77867245     0.06290
C2569       C  0.53424388  0.72245627  0.68050786     0.03330
C2570       C  0.53167692  0.71569945  0.71346692    -0.12820
C2571       C  0.54430102  0.73757759  0.73496031     0.00830
C2572       C  0.56024101  0.76372046  0.72204508    -0.11350
C2573       C  0.55094460  0.77652158  0.69289446     0.03320
C2574       C  0.53945830  0.75464189  0.67061671    -0.10770
H2575       H  0.52150463  0.69352455  0.72187977     0.08920
H2576       H  0.57548371  0.77714225  0.73674907     0.06440
H2577       H  0.53589365  0.76197363  0.64626592     0.06290
C2578       C  0.56299772  0.86618467  0.67674797     0.03330
C2579       C  0.56018184  0.87598427  0.70890797    -0.12820
C2580       C  0.54754329  0.85447759  0.73116720     0.00830
C2581       C  0.53511557  0.82623519  0.71906701    -0.11390
C2582       C  0.54765394  0.81231051  0.69181734     0.03320
C2583       C  0.56026705  0.83329094  0.66906938    -0.10770
H2584       H  0.56622152  0.89999121  0.71591181     0.08920
H2585       H  0.52006409  0.81236843  0.73370546     0.06440
H2586       H  0.56648606  0.82476557  0.64571694     0.06290
O2587       O  0.99483269  0.95398301  0.49872270    -0.79930
O2588       O  0.99296367  0.63580014  0.50515385    -0.81490
O2589       O  0.95661718  0.54344725  0.55429361    -0.78500
O2590       O  0.95319917  0.54547977  0.95199858    -0.76890
O2591       O  0.99035524  0.54605868  0.91265123    -0.78680
O2592       O  0.99518937  0.54261250  0.59208457    -0.79610
O2593       O  0.95483396  0.59716581  0.50577794    -0.80940
O2594       O  0.95681148  0.99238909  0.49985008    -0.81230
Eu2595     Eu  0.98175666  0.54538539  0.50218154     2.39200
O2596       O  0.51223508  0.57939930  0.96933970    -0.88740
O2597       O  0.51439051  0.51228107  0.53329398    -0.92340
C2598       C  0.96565464  0.96295977  0.49815986     1.02350
C2599       C  0.96373773  0.62650265  0.50717258     1.02170
C2600       C  0.96580646  0.54264793  0.58330922     1.02110
C2601       C  0.96130394  0.54480018  0.92264070     0.99970
H2602       H  0.50124903  0.58978492  0.54734778     0.29720
O2603       O  0.51453304  0.57718338  0.53362672    -1.01120
H2604       H  0.49959035  0.50124452  0.95565792     0.29750
O2605       O  0.51313134  0.51424347  0.96869428    -1.03670
O2606       O  0.59849921  0.63678367  0.49843968    -0.80890
O2607       O  0.59767376  0.95467028  0.49887231    -0.80430
O2608       O  0.54425922  0.59734707  0.59127921    -0.78870
O2609       O  0.54415040  0.60007463  0.91056060    -0.82210
O2610       O  0.54124000  0.99666583  0.90822255    -0.80060
O2611       O  0.55013909  0.99173665  0.58987246    -0.78710
O2612       O  0.63671372  0.54326538  0.55139434    -0.80230
O2613       O  0.63449623  0.54919441  0.94580448    -0.82160
O2614       O  0.59935018  0.54319768  0.59065220    -0.78900
O2615       O  0.59538452  0.54925873  0.90863090    -0.81570
O2616       O  0.54392731  0.63649395  0.55333854    -0.77310
O2617       O  0.54890017  0.95405328  0.55077104    -0.77340
O2618       O  0.54388202  0.95712276  0.94573014    -0.76980
O2619       O  0.54444082  0.63790017  0.94944041    -0.80480
O2620       O  0.63661968  0.59814606  0.49675904    -0.79900
O2621       O  0.63571612  0.99333967  0.49974144    -0.78230
Eu2622     Eu  0.54568978  0.61074624  0.50139230     2.39770
Eu2623     Eu  0.54612827  0.98130654  0.49904433     2.39570
Eu2624     Eu  0.54708681  0.54482382  0.56501488     2.38400
Eu2625     Eu  0.54391065  0.54746022  0.93619147     2.39880
Eu2626     Eu  0.61013742  0.54608774  0.49910159     2.39790
O2627       O  0.57781563  0.51422062  0.96635497    -0.92650
O2628       O  0.57910450  0.57831867  0.53289953    -0.91540
C2629       C  0.62769433  0.62755812  0.49587835     1.02520
C2630       C  0.62685004  0.96391060  0.49985387     1.01240
C2631       C  0.54261575  0.62685170  0.58235145     1.00630
C2632       C  0.54470070  0.62915181  0.92015872     1.02640
C2633       C  0.54130624  0.96719161  0.91683832     1.01560
C2634       C  0.55061846  0.96270020  0.58000918     1.00410
C2635       C  0.62842115  0.54218965  0.58090330     1.00470
C2636       C  0.62482429  0.55072889  0.91673719     1.03080
H2637       H  0.59173088  0.50006009  0.54367644     0.30450
O2638       O  0.57816433  0.51354036  0.53102082    -1.04810
H2639       H  0.58944340  0.59216984  0.95503075     0.32500
O2640       O  0.57665619  0.57858107  0.96846760    -1.07370
C2641       C  0.53136625  0.89695496  0.63866206    -0.05580
C2642       C  0.56152188  0.89030454  0.65117234     0.00350
C2643       C  0.58838172  0.90694054  0.63972765    -0.08230
C2644       C  0.58399471  0.93063768  0.61633113    -0.05600
C2645       C  0.55371282  0.93741404  0.60409624     0.00330
C2646       C  0.52697900  0.92029131  0.61511741    -0.08130
C2647       C  0.99401480  0.92711433  0.60228459     0.62240
H2648       H  0.01115689  0.88378832  0.64779511     0.12940
H2649       H  0.60414120  0.94401372  0.60734573     0.12950
C2650       C  0.62127266  0.89917592  0.65195587     0.62480
F2651       F  0.97109620  0.90830276  0.61671939    -0.22690
F2652       F  0.99331319  0.92119472  0.57011721    -0.20020
F2653       F  0.98630542  0.95867723  0.60746401    -0.19700
F2654       F  0.62775439  0.86733393  0.64688467    -0.19750
F2655       F  0.62278775  0.90524868  0.68406090    -0.20070
F2656       F  0.64446607  0.91705204  0.63680140    -0.22740
C2657       C  0.51415012  0.69788294  0.63107964    -0.05580
C2658       C  0.53480393  0.69623199  0.65699955     0.00350
C2659       C  0.55815011  0.67169231  0.65814687    -0.08230
C2660       C  0.55932262  0.64937047  0.63349119    -0.05600
C2661       C  0.53907898  0.65133063  0.60734404     0.00330
C2662       C  0.51586976  0.67589281  0.60606780    -0.08130
C2663       C  0.49243756  0.67853501  0.57894836     0.62240
H2664       H  0.49690027  0.71698452  0.63038885     0.12940
H2665       H  0.57670343  0.63037727  0.63407412     0.12950
C2666       C  0.58284105  0.66952442  0.68436189     0.62480
F2667       F  0.46937577  0.70131098  0.58456793    -0.22690
F2668       F  0.47733291  0.64963675  0.57493281    -0.20020
F2669       F  0.50819307  0.68700103  0.55139631    -0.19700
F2670       F  0.56859492  0.66011324  0.71240088    -0.19750
F2671       F  0.59747776  0.69871569  0.68838631    -0.20070
F2672       F  0.60631313  0.64753230  0.67747484    -0.22740
C2673       C  0.50963806  0.91412855  0.85114600    -0.05580
C2674       C  0.53667565  0.89592861  0.84445534     0.00350
C2675       C  0.56541864  0.90193533  0.86090948    -0.08230
C2676       C  0.56563105  0.92501503  0.88483531    -0.05600
C2677       C  0.53867437  0.94312539  0.89165902     0.00330
C2678       C  0.51029039  0.93820658  0.87430024    -0.08130
C2679       C  0.98104669  0.95848833  0.87998854     0.62240
H2680       H  0.98820349  0.90954597  0.83781827     0.12940
H2681       H  0.58711897  0.92958267  0.89811459     0.12950
C2682       C  0.59604449  0.88466598  0.85264198     0.62480
F2683       F  0.95528518  0.94806707  0.86257641    -0.22690
F2684       F  0.98740567  0.98960572  0.87126214    -0.20020
F2685       F  0.97269558  0.95755440  0.91162916    -0.19700
F2686       F  0.60281263  0.88881709  0.82081399    -0.19750
F2687       F  0.59303402  0.85253733  0.85921855    -0.20070
F2688       F  0.62162172  0.89609761  0.86970515    -0.22740
C2689       C  0.57624164  0.65948505  0.88063047    -0.05580
C2690       C  0.54686080  0.65428355  0.89568386     0.00350
C2691       C  0.52037052  0.67294357  0.88715090    -0.08230
C2692       C  0.52428352  0.69671403  0.86395519    -0.05600
C2693       C  0.55367115  0.70192375  0.84900558     0.00330
C2694       C  0.58018521  0.68320342  0.85731409    -0.08130
C2695       C  0.61238315  0.68866956  0.84202649     0.62240
H2696       H  0.59630352  0.64505617  0.88754788     0.12940
H2697       H  0.00423446  0.71121457  0.85686719     0.12950
C2698       C  0.98814472  0.66723336  0.90215168     0.62480
F2699       F  0.63546817  0.66909003  0.85494427    -0.22690
F2700       F  0.62162257  0.71994630  0.84638547    -0.20020
F2701       F  0.61071667  0.68253249  0.80996203    -0.19700
F2702       F  0.99010944  0.67221145  0.93432951    -0.19750
F2703       F  0.97862306  0.63620112  0.89677360    -0.20070
F2704       F  0.96521612  0.68748164  0.89002460    -0.22740
C2705       C  0.88817721  0.53233801  0.62913581    -0.05580
C2706       C  0.89462837  0.54889341  0.65724652     0.00350
C2707       C  0.92528081  0.56296714  0.66095180    -0.08230
C2708       C  0.94785378  0.55922192  0.63660266    -0.05600
C2709       C  0.94091095  0.54325300  0.60834768     0.00330
C2710       C  0.91049950  0.52921775  0.60463221    -0.08130
C2711       C  0.90156892  0.50968725  0.57579627     0.62240
H2712       H  0.86532253  0.52083984  0.62672800     0.12940
H2713       H  0.97125528  0.56957733  0.63940217     0.12950
C2714       C  0.93570450  0.58184766  0.68972458     0.62480
F2715       F  0.89756280  0.52943927  0.54980427    -0.22690
F2716       F  0.92499233  0.48750751  0.56956976    -0.20020
F2717       F  0.87343418  0.49326178  0.58050498    -0.19700
F2718       F  0.95096544  0.56174162  0.71084355    -0.19750
F2719       F  0.91035081  0.59658558  0.70441200    -0.20070
F2720       F  0.95694379  0.60555801  0.68103969    -0.22740
C2721       C  0.70633100  0.54705891  0.62746118    -0.05580
C2722       C  0.69881032  0.52992219  0.65525329     0.00350
C2723       C  0.66817642  0.51593062  0.65786680    -0.08230
C2724       C  0.64602332  0.52111044  0.63334118    -0.05600
C2725       C  0.65363788  0.53836939  0.60558769     0.00330
C2726       C  0.68461349  0.55141058  0.60254743    -0.08130
C2727       C  0.69462046  0.57131266  0.57406576     0.62240
H2728       H  0.72947685  0.55815683  0.62577257     0.12940
H2729       H  0.62246316  0.51092192  0.63566864     0.12950
C2730       C  0.65779933  0.49527690  0.68563399     0.62480
F2731       F  0.72408276  0.58522091  0.57836669    -0.22690
F2732       F  0.67283400  0.59544844  0.56913710    -0.20020
F2733       F  0.69656653  0.55237194  0.54746262    -0.19700
F2734       F  0.64041468  0.51341768  0.70668376    -0.19750
F2735       F  0.68335619  0.48164998  0.70108293    -0.20070
F2736       F  0.63869767  0.47071020  0.67521397    -0.22740
C2737       C  0.66942288  0.57656648  0.84120168    -0.05580
C2738       C  0.70078797  0.56724460  0.84805118     0.00350
C2739       C  0.70636577  0.55095820  0.87745755    -0.08230
C2740       C  0.68104061  0.54742147  0.89906065    -0.05600
C2741       C  0.64959747  0.55533284  0.89142231     0.00330
C2742       C  0.64348173  0.56835879  0.86079939    -0.08130
C2743       C  0.61013910  0.57215790  0.84753300     0.62240
H2744       H  0.66494016  0.58920468  0.81932255     0.12940
H2745       H  0.68565365  0.53711574  0.92213002     0.12950
C2746       C  0.73790065  0.53552597  0.88647172     0.62480
F2747       F  0.61025784  0.58410935  0.81689548    -0.22690
F2748       F  0.59272991  0.59274327  0.86587019    -0.20020
F2749       F  0.59526234  0.54278077  0.84687753    -0.19700
F2750       F  0.75956411  0.55851576  0.89524932    -0.19750
F2751       F  0.74966498  0.51774174  0.86162637    -0.20070
F2752       F  0.73463180  0.51488705  0.91195335    -0.22740
C2753       C  0.88502663  0.52352791  0.87807419    -0.05580
C2754       C  0.89121912  0.53753054  0.84853386     0.00350
C2755       C  0.92004818  0.55467131  0.84375917    -0.08230
C2756       C  0.94185187  0.55631380  0.86874644    -0.05600
C2757       C  0.93580105  0.54235346  0.89840367     0.00330
C2758       C  0.90664647  0.52569179  0.90331841    -0.08130
C2759       C  0.89825746  0.50954229  0.93453043     0.62240
H2760       H  0.86269070  0.51110532  0.88126725     0.12940
H2761       H  0.96400288  0.56899693  0.86531032     0.12950
C2762       C  0.92779033  0.57230890  0.81301525     0.62480
F2763       F  0.87033264  0.49221837  0.93269553    -0.22690
F2764       F  0.89426821  0.53210850  0.95792483    -0.20020
F2765       F  0.92216839  0.48871232  0.94287149    -0.19700
F2766       F  0.90249687  0.59126518  0.80402150    -0.19750
F2767       F  0.93455130  0.55079342  0.78932432    -0.20070
F2768       F  0.95402566  0.59194278  0.81611845    -0.22740
C2769       C  0.70349831  0.91611346  0.99266087    -0.05580
C2770       C  0.69557405  0.88786738  0.50909249     0.00350
C2771       C  0.66504499  0.88524958  0.52315859    -0.08230
C2772       C  0.64329749  0.91032050  0.51869356    -0.05600
C2773       C  0.65148600  0.93865953  0.50253679     0.00330
C2774       C  0.68248902  0.94183920  0.98969055    -0.08130
C2775       C  0.69354449  0.97162515  0.97212240     0.62240
H2776       H  0.72658086  0.91778054  0.98145624     0.12940
H2777       H  0.61969638  0.90805148  0.52878039     0.12950
C2778       C  0.65440278  0.85701191  0.54315471     0.62480
F2779       F  0.72311881  0.96759770  0.45835310    -0.22690
F2780       F  0.69588431  0.49676360  0.49300893    -0.20020
F2781       F  0.67234466  0.47914499  0.94827123    -0.19700
F2782       F  0.67980690  0.84115943  0.55662269    -0.19750
F2783       F  0.63723344  0.83623228  0.02455844    -0.20070
F2784       F  0.63509777  0.86710459  0.06772090    -0.22740
C2785       C  0.68321426  0.64568674  0.00348690    -0.05580
C2786       C  0.65319274  0.65187446  0.49060984     0.00350
C2787       C  0.64942061  0.67910166  0.47088755    -0.08230
C2788       C  0.67610456  0.69804375  0.46376149    -0.05600
C2789       C  0.70570782  0.69327743  0.47839220     0.00330
C2790       C  0.70923385  0.66638103  0.99907626    -0.08130
C2791       C  0.73942619  0.65925799  0.01764688     0.62240
H2792       H  0.68599178  0.62448319  0.01783429     0.12940
H2793       H  0.67354310  0.71790254  0.44755537     0.12950
C2794       C  0.61752341  0.68834059  0.45721836     0.62480
F2795       F  0.73483206  0.63542934  0.53991807    -0.22690
F2796       F  0.74935281  0.68593502  0.53389304    -0.20020
F2797       F  0.76302814  0.64892867  0.99740957    -0.19700
F2798       F  0.59704597  0.69682541  0.48139658    -0.19750
F2799       F  0.60526053  0.66284324  0.94109767    -0.20070
F2800       F  0.61962434  0.71382211  0.93634874    -0.22740
C2801       C  0.94544588  0.68166118  0.99788410    -0.05580
C2802       C  0.93907492  0.65168211  0.51128540     0.00350
C2803       C  0.91042355  0.64732559  0.52880564    -0.08230
C2804       C  0.88911346  0.67307515  0.53135053    -0.05600
C2805       C  0.89487607  0.70246067  0.01639092     0.00330
C2806       C  0.92355182  0.70678759  0.99895172    -0.08130
C2807       C  0.93079995  0.73689730  0.97986691     0.62240
H2808       H  0.96777690  0.68519949  0.98577100     0.12940
H2809       H  0.86701818  0.67013270  0.54421673     0.12950
C2810       C  0.90208574  0.61599770  0.54501107     0.62480
F2811       F  0.95697140  0.73312691  0.96031549    -0.22690
F2812       F  0.93730885  0.76185655  0.49999481    -0.20020
F2813       F  0.90531581  0.74464395  0.96072510    -0.19700
F2814       F  0.92683163  0.60634797  0.56422124    -0.19750
F2815       F  0.89613308  0.59302519  0.02246799    -0.20070
F2816       F  0.87524414  0.61854840  0.56383250    -0.22740
C2817       C  0.90910465  0.94748150  0.50305181    -0.05580
C2818       C  0.94013377  0.93835263  0.49485363     0.00350
C2819       C  0.94506595  0.90721526  0.98251437    -0.08230
C2820       C  0.91858241  0.88720527  0.97844761    -0.05600
C2821       C  0.88803852  0.89533492  0.48924705     0.00330
C2822       C  0.88304082  0.92666432  0.50129313    -0.08130
C2823       C  0.85100757  0.93882755  0.51311222     0.62240
H2824       H  0.90534359  0.97137872  0.51162524     0.12940
H2825       H  0.92189920  0.86404825  0.96791874     0.12950
C2826       C  0.97779771  0.89409229  0.97445952     0.62480
F2827       F  0.85343488  0.96826853  0.52734939    -0.22690
F2828       F  0.83831904  0.91811947  0.53537072    -0.20020
F2829       F  0.83041523  0.94265146  0.98801263    -0.19700
F2830       F  0.49618979  0.89278788  0.50151626    -0.19750
F2831       F  0.49241553  0.91306997  0.95196356    -0.20070
F2832       F  0.97635067  0.86353963  0.96238026    -0.22740
loop_ 
_geom_bond_atom_site_label_1 
_geom_bond_atom_site_label_2 
_geom_bond_distance 
_geom_bond_site_symmetry_2 
_ccdc_geom_bond_type 
C1            C6   1.416       .  A
C1          C356   1.426   1_556  A
C1          C343   1.501       .  S
C2            C3   1.398       .  A
C2          C355   1.426       .  A
C2            H7   1.081       .  S
C3            C4   1.403       .  A
C3           C12   1.498       .  S
C4          C359   1.402       .  A
C4            H8   1.073       .  S
C5            C6   1.400   1_554  A
C5          C358   1.402       .  A
C5           C30   1.489   1_554  S
C6            H9   1.077       .  S
C10          C11   1.423       .  A
C10          C15   1.425       .  A
C10         C327   1.488       .  S
C11          C12   1.402       .  A
C11          H16   1.082       .  S
C12          C13   1.394       .  A
C13          C14   1.401       .  A
C13          H17   1.064       .  S
C14          C15   1.402       .  A
C14         C375   1.505       .  S
C15          H18   1.083       .  S
C19          C20   1.431       .  A
C19          C24   1.434       .  A
C19         C311   1.504       .  S
C20          C21   1.406       .  A
C20          H25   1.078       .  S
C21          C22   1.391   1_556  A
C21         C368   1.505       .  S
C22          C23   1.387   1_554  A
C22          H26   1.058       .  S
C23          C24   1.397       .  A
C23          C32   1.502       .  S
C24          H27   1.081       .  S
C28          C29   1.421       .  A
C28          C33   1.426   1_554  A
C28         C292   1.493       .  S
C29          C30   1.397   1_554  A
C29          H34   1.084       .  S
C30          C31   1.393       .  A
C31          C32   1.402       .  A
C31          H35   1.069       .  S
C32          C33   1.404       .  A
C33          H36   1.079   1_556  S
C37          C38   1.425       .  A
C37          C42   1.418       .  A
C37         C276   1.483       .  S
C38          C39   1.403       .  A
C38          H43   1.083       .  S
C39          C40   1.403       .  A
C39          C48   1.506       .  S
C40          C41   1.396       .  A
C40          H44   1.064       .  S
C41          C42   1.398       .  A
C41          C68   1.494       .  S
C42          H45   1.082       .  S
C46          C47   1.432       .  A
C46          C51   1.440       .  A
C46         C260   1.511       .  S
C47          C48   1.406       .  A
C47          H52   1.077       .  S
C48          C49   1.388       .  A
C49          C50   1.386       .  A
C49          H53   1.055       .  S
C50          C51   1.402       .  A
C50          C57   1.510       .  S
C51          H54   1.080       .  S
C55          C56   1.429       .  A
C55          C60   1.430       .  A
C55         C244   1.501       .  S
C56          C57   1.404       .  A
C56          H61   1.078       .  S
C57          C58   1.402       .  A
C58          C59   1.393       .  A
C58          H62   1.064       .  S
C59          C60   1.404       .  A
C59          C66   1.505       .  S
C60          H63   1.083       .  S
C64          C65   1.431       .  A
C64          C69   1.416       .  A
C64         C228   1.500       .  S
C65          C66   1.407       .  A
C65          H70   1.083       .  S
C66          C67   1.401       .  A
C67          C68   1.402       .  A
C67          H71   1.071       .  S
C68          C69   1.392       .  A
C69          H72   1.074       .  S
C73          C74   1.420       .  A
C73          C78   1.418       .  A
C73         C215   1.472       .  S
C74          C75   1.402       .  A
C74          H79   1.083       .  S
C75          C76   1.400       .  A
C75          C84   1.503       .  S
C76          C77   1.401       .  A
C76          H80   1.064       .  S
C77          C78   1.399       .  A
C77          C93   1.500       .  S
C78          H81   1.083       .  S
C82          C83   1.422       .  A
C82          C87   1.426       .  A
C82         C196   1.480       .  S
C83          C84   1.401       .  A
C83          H88   1.083       .  S
C84          C85   1.395       .  A
C85          C86   1.399       .  A
C85          H89   1.059       .  S
C86          C87   1.406       .  A
C86         C102   1.510       .  S
C87          H90   1.083       .  S
C91          C92   1.423       .  A
C91          C96   1.429       .  A
C91         C180   1.487       .  S
C92          C93   1.401       .  A
C92          H97   1.082       .  S
C93          C94   1.394       .  A
C94          C95   1.397       .  A
C94          H98   1.059       .  S
C95          C96   1.406       .  A
C95         C104   1.510       .  S
C96          H99   1.083       .  S
C100        C101   1.426       .  A
C100        C105   1.425       .  A
C100        C164   1.478       .  S
C101        C102   1.403       .  A
C101        H106   1.083       .  S
C102        C103   1.396       .  A
C103        C104   1.397       .  A
C103        H107   1.056       .  S
C104        C105   1.403       .  A
C105        H108   1.083       .  S
O109        C120   1.286       .  A
O109      Eu1561   2.445       .  S
O110        C121   1.293       .  A
O110      Eu1560   2.463       .  S
O111        C122   1.286       .  A
O111       Eu117   2.440       .  S
O112        C123   1.285       .  A
O112       Eu471   2.440       .  S
O113        C123   1.294       .  A
O113      Eu1563   2.468       .  S
O114        C122   1.293       .  A
O114      Eu1562   2.465       .  S
O115        C121   1.289       .  A
O115       Eu117   2.459       .  S
O116        C120   1.293       .  A
O116       Eu825   2.463   1_556  S
Eu117       O466   2.440   1_554  S
Eu117       O824   2.463   1_544  S
Eu117      O1897   2.339   1_554  S
Eu117      O1535   2.354       .  S
Eu117      O1888   2.361   1_554  S
Eu117      O1541   2.341       .  S
O118       Eu147   2.357       .  S
O118      Eu1887   2.361   1_455  S
O118       Eu498   2.362       .  S
O119       Eu146   2.364       .  S
O119      Eu1533   2.353   1_455  S
O119       Eu853   2.363   1_544  S
C120        C340   1.498       .  S
C121        C324   1.493       .  S
C122        C231   1.487       .  S
C123        C279   1.490       .  S
H124        O125   0.965       .  S
O125       Eu146   2.340       .  S
O125       Eu144   2.350       .  S
O125      Eu1533   2.341   1_455  S
H126        O127   0.965   1_655  S
O127       Eu147   2.339       .  S
O127      Eu1887   2.339   1_455  S
O127      Eu1207   2.341   1_545  S
O128        C151   1.294       .  A
O128       Eu144   2.480   1_556  S
O129        C152   1.289       .  A
O129       Eu145   2.443       .  S
O130        C153   1.295       .  A
O130       Eu146   2.478       .  S
O131        C154   1.289       .  A
O131       Eu147   2.454       .  S
O132        C155   1.288       .  A
O132       Eu855   2.447       .  S
O133        C156   1.291       .  A
O133       Eu854   2.462       .  S
O134        C157   1.294       .  A
O134       Eu148   2.481   1_554  S
O135        C158   1.296       .  A
O135       Eu502   2.474       .  S
O136        C157   1.291       .  A
O136       Eu146   2.456       .  S
O137        C158   1.289       .  A
O137       Eu147   2.458       .  S
O138        C153   1.289       .  A
O138       Eu144   2.453       .  S
O139        C156   1.291       .  A
O139       Eu145   2.463   1_554  S
O140        C155   1.294       .  A
O140       Eu499   2.478       .  S
O141        C154   1.292       .  A
O141       Eu498   2.467       .  S
O142        C151   1.292       .  A
O142       Eu148   2.455       .  S
O143        C152   1.291       .  A
O143       Eu856   2.464       .  S
Eu144      O1526   2.463   1_455  S
Eu144       O495   2.467   1_554  S
Eu144       O150   2.366       .  S
Eu144       O472   2.362   1_554  S
Eu144       O516   2.340   1_554  S
Eu145      O1525   2.445   1_455  S
Eu145       O494   2.478       .  S
Eu145       O827   2.363   1_556  S
Eu145      O1189   2.341       .  S
Eu145      O1211   2.358       .  S
Eu145       O868   2.346   1_556  S
Eu146      O1530   2.465   1_455  S
Eu146       O841   2.462   1_545  S
Eu146       O160   2.348       .  S
Eu146       O150   2.366       .  S
Eu147      O1529   2.468   1_455  S
Eu147       O840   2.447   1_545  S
Eu147       O149   2.367       .  S
Eu147       O162   2.344       .  S
Eu148       O489   2.474       .  S
Eu148       O851   2.464   1_545  S
Eu148       O160   2.337   1_556  S
Eu148       O150   2.365   1_556  S
Eu148       O503   2.363       .  S
Eu148       O516   2.349       .  S
O149      Eu1207   2.358   1_545  S
O149       Eu502   2.363       .  S
C151        C308   1.496       .  S
C152        C295   1.488   1_556  S
C153        C183   1.485       .  S
C154        C212   1.475       .  S
C155        C199   1.476       .  S
C156        C167   1.472       .  S
C157        C247   1.498       .  S
C158        C263   1.503       .  S
H159        O160   0.965       .  S
O160       Eu853   2.346   1_544  S
H161        O162   0.965       .  S
O162       Eu498   2.340       .  S
O162       Eu502   2.349       .  S
C163        C164   1.404       .  A
C163        C168   1.405       .  A
C163       H1586   1.084       .  S
C164        C165   1.412       .  A
C165        C166   1.411       .  A
C165        C172   1.515       .  S
C166        C167   1.406       .  A
C166        H171   1.084       .  S
C167        C168   1.412       .  A
C168       C1585   1.519   1_455  S
C169       C1584   1.519       .  S
C169        F173   1.384       .  S
C169        F174   1.383       .  S
C169        F175   1.383       .  S
H170       C1579   1.084       .  S
C172        F176   1.383       .  S
C172        F177   1.383       .  S
C172        F178   1.384       .  S
C179        C180   1.401       .  A
C179        C184   1.409       .  A
C179        H186   1.083   1_455  S
C180        C181   1.426       .  A
C181        C182   1.406       .  A
C181        C188   1.523       .  S
C182        C183   1.399       .  A
C182        H187   1.083       .  S
C183        C184   1.423       .  A
C184        C185   1.517   1_455  S
C185        F189   1.385       .  S
C185        F190   1.381       .  S
C185        F191   1.382   1_655  S
C188        F192   1.381       .  S
C188        F193   1.383       .  S
C188        F194   1.385       .  S
C195        C196   1.401       .  A
C195        C200   1.411       .  A
C195       H1618   1.083   1_455  S
C196        C197   1.421       .  A
C197        C198   1.404       .  A
C197        C204   1.521       .  S
C198        C199   1.397       .  A
C198        H203   1.084       .  S
C199        C200   1.420       .  A
C200       C1617   1.518   1_455  S
C201       C1616   1.518       .  S
C201        F205   1.384       .  S
C201        F206   1.381       .  S
C201        F207   1.381       .  S
H202       C1611   1.083       .  S
C204        F208   1.383       .  S
C204        F209   1.382       .  S
C204        F210   1.385       .  S
C211        C212   1.406       .  A
C211        C216   1.406       .  A
C211        H218   1.080       .  S
C212        C213   1.410       .  A
C213        C214   1.404       .  A
C213       C1636   1.515   1_455  S
C214        C215   1.404       .  A
C214       H1635   1.084       .  S
C215        C216   1.410       .  A
C216        C217   1.517       .  S
C217        F221   1.385       .  S
C217        F222   1.383       .  S
C217        F223   1.382       .  S
H219       C1630   1.084       .  S
C220       C1629   1.515       .  S
C220        F224   1.379       .  S
C220        F225   1.383       .  S
C220        F226   1.384       .  S
C227        C228   1.406       .  A
C227        C232   1.403       .  A
C227        H234   1.082       .  S
C228        C229   1.429       .  A
C229        C230   1.408       .  A
C229        C236   1.520       .  S
C230        C231   1.404       .  A
C230        H235   1.084       .  S
C231        C232   1.419       .  A
C232        C233   1.520       .  S
C233        F237   1.383       .  S
C233        F238   1.383   1_545  S
C233        F239   1.384   1_545  S
C236        F240   1.384       .  S
C236        F241   1.382       .  S
C236        F242   1.385       .  S
C243        C244   1.408       .  A
C243        C248   1.407       .  A
C243        H250   1.082       .  S
C244        C245   1.421       .  A
C245        C246   1.412       .  A
C245        C252   1.517   1_545  S
C246        C247   1.410       .  A
C246        H251   1.084       .  S
C247        C248   1.419       .  A
C248        C249   1.519       .  S
C249        F253   1.384       .  S
C249        F254   1.383       .  S
C249        F255   1.383       .  S
C252        F256   1.383   1_565  S
C252        F257   1.383       .  S
C252        F258   1.382       .  S
C259        C260   1.408       .  A
C259        C264   1.410       .  A
C259        H266   1.080       .  S
C260        C261   1.434       .  A
C261        C262   1.409       .  A
C261        C268   1.526       .  S
C262        C263   1.403       .  A
C262        H267   1.082       .  S
C263        C264   1.425       .  A
C264        C265   1.521       .  S
C265        F269   1.385       .  S
C265        F270   1.375       .  S
C265        F271   1.384       .  S
C268        F272   1.381       .  S
C268        F273   1.383       .  S
C268        F274   1.384       .  S
C275        C276   1.400       .  A
C275        C280   1.407       .  A
C275        H282   1.083       .  S
C276        C277   1.424       .  A
C277        C278   1.403       .  A
C277        C284   1.525       .  S
C278        C279   1.402       .  A
C278        H283   1.083       .  S
C279        C280   1.427       .  A
C280        C281   1.519       .  S
C281        F285   1.385   1_545  S
C281        F286   1.383       .  S
C281        F287   1.380   1_545  S
C284        F288   1.383       .  S
C284        F289   1.381       .  S
C284        F290   1.385       .  S
C291        C296   1.402       .  A
C291        C646   1.410       .  A
C291        H298   1.082       .  S
C292        C293   1.419       .  A
C292        C645   1.410   1_554  A
C293        C294   1.408       .  A
C293        C300   1.518       .  S
C294        C295   1.410       .  A
C294        H299   1.084       .  S
C295        C650   1.418   1_554  A
C296        C649   1.418       .  A
C296        C297   1.522       .  S
C297        F655   1.384       .  S
C297       F1364   1.383       .  S
C297       F1011   1.383       .  S
C300        F304   1.383       .  S
C300        F659   1.383       .  S
C300        F660   1.385       .  S
F301        C651   1.384       .  S
F302       C1359   1.383       .  S
F303       C1005   1.383       .  S
F305        C654   1.383       .  S
F306        C654   1.385       .  S
C307        C312   1.409       .  A
C307        C662   1.402       .  A
C307        H314   1.081       .  S
C308        C309   1.420       .  A
C308        C661   1.402   1_556  A
C309        C310   1.407       .  A
C309        C316   1.514       .  S
C310        C311   1.407       .  A
C310        H315   1.081       .  S
C311        C666   1.432       .  A
C312        C665   1.432       .  A
C312        C313   1.525       .  S
C313        F319   1.381       .  S
C313        F671   1.382       .  S
C313        F672   1.382       .  S
C316        F320   1.383       .  S
C316        F675   1.374       .  S
C316        F676   1.385       .  S
F317        C667   1.382       .  S
F318        C667   1.382       .  S
F321        C670   1.374       .  S
F322        C670   1.385       .  S
C323        C328   1.403       .  A
C323        C678   1.402       .  A
C323        H330   1.079       .  S
C324        C325   1.425       .  A
C324        C677   1.402   1_554  A
C325        C326   1.410       .  A
C325        C332   1.520       .  S
C326        C681   1.404       .  A
C326        H331   1.083       .  S
C327        C328   1.424       .  A
C327        C680   1.404       .  A
C328        C329   1.525       .  S
C329        F333   1.385       .  S
C329        F335   1.383       .  S
C329        F688   1.381       .  S
C332        F336   1.382       .  S
C332        F338   1.385       .  S
C332        F691   1.383       .  S
F334        C683   1.381       .  S
F337        C686   1.383       .  S
C339        C340   1.405   1_554  A
C339        C344   1.405       .  A
C339        H346   1.081       .  S
C340        C695   1.426       .  A
C341        C342   1.407       .  A
C341        C694   1.426       .  A
C341        C348   1.523       .  S
C342        C697   1.406       .  A
C342        H347   1.081       .  S
C343        C344   1.429   1_556  A
C343        C696   1.406       .  A
C344        C345   1.527       .  S
C345        F349   1.382       .  S
C345        F350   1.383       .  S
C345        F705   1.380   1_554  S
C348        F354   1.385       .  S
C348       F2122   1.383       .  S
C348       F1769   1.379       .  S
F351        C699   1.380       .  S
F352       C2118   1.383   1_554  S
F353       C1764   1.379       .  S
C355        C360   1.416       .  A
C355        C697   1.501       .  S
C356        C357   1.398       .  A
C356        H361   1.081       .  S
C357        C358   1.403       .  A
C357        C366   1.498       .  S
C358        H362   1.073       .  S
C359        C360   1.400       .  A
C359        C384   1.489       .  S
C360        H363   1.077       .  S
C364        C365   1.423       .  A
C364        C369   1.426       .  A
C364        C681   1.488       .  S
C365        C366   1.402       .  A
C365        H370   1.082       .  S
C366        C367   1.394   1_554  A
C367        C368   1.401       .  A
C367        H371   1.064       .  S
C368        C369   1.402   1_556  A
C369        H372   1.083       .  S
C373        C374   1.431       .  A
C373        C378   1.434       .  A
C373        C665   1.504       .  S
C374        C375   1.406       .  A
C374        H379   1.078       .  S
C375        C376   1.391       .  A
C376        C377   1.387       .  A
C376        H380   1.058       .  S
C377        C378   1.397       .  A
C377        C386   1.502       .  S
C378        H381   1.081       .  S
C382        C383   1.421       .  A
C382        C387   1.426       .  A
C382        C646   1.493       .  S
C383        C384   1.397       .  A
C383        H388   1.084       .  S
C384        C385   1.393       .  A
C385        C386   1.402       .  A
C385        H389   1.069       .  S
C386        C387   1.404       .  A
C387        H390   1.079       .  S
C391        C392   1.425       .  A
C391        C396   1.418       .  A
C391        C630   1.483       .  S
C392        C393   1.403       .  A
C392        H397   1.083       .  S
C393        C394   1.403       .  A
C393        C402   1.506       .  S
C394        C395   1.396       .  A
C394        H398   1.064       .  S
C395        C396   1.398       .  A
C395        C422   1.494       .  S
C396        H399   1.082       .  S
C400        C401   1.432       .  A
C400        C405   1.440       .  A
C400        C614   1.511       .  S
C401        C402   1.406       .  A
C401        H406   1.077       .  S
C402        C403   1.389       .  A
C403        C404   1.386       .  A
C403        H407   1.055       .  S
C404        C405   1.402       .  A
C404        C411   1.510       .  S
C405        H408   1.080       .  S
C409        C410   1.429       .  A
C409        C414   1.430       .  A
C409        C598   1.501       .  S
C410        C411   1.404       .  A
C410        H415   1.078       .  S
C411        C412   1.402       .  A
C412        C413   1.393       .  A
C412        H416   1.064       .  S
C413        C414   1.404       .  A
C413        C420   1.505       .  S
C414        H417   1.083       .  S
C418        C419   1.431       .  A
C418        C423   1.416       .  A
C418        C582   1.500       .  S
C419        C420   1.407       .  A
C419        H424   1.083       .  S
C420        C421   1.401       .  A
C421        C422   1.402       .  A
C421        H425   1.071       .  S
C422        C423   1.392       .  A
C423        H426   1.074       .  S
C427        C428   1.420       .  A
C427        C432   1.418       .  A
C427        C569   1.472       .  S
C428        C429   1.402       .  A
C428        H433   1.083       .  S
C429        C430   1.400       .  A
C429        C438   1.503       .  S
C430        C431   1.401       .  A
C430        H434   1.064       .  S
C431        C432   1.399       .  A
C431        C447   1.500       .  S
C432        H435   1.083       .  S
C436        C437   1.422       .  A
C436        C441   1.426       .  A
C436        C550   1.480       .  S
C437        C438   1.401       .  A
C437        H442   1.083       .  S
C438        C439   1.395       .  A
C439        C440   1.399       .  A
C439        H443   1.059       .  S
C440        C441   1.406       .  A
C440        C456   1.510       .  S
C441        H444   1.083       .  S
C445        C446   1.423       .  A
C445        C450   1.429       .  A
C445        C534   1.487       .  S
C446        C447   1.401       .  A
C446        H451   1.082       .  S
C447        C448   1.394       .  A
C448        C449   1.397       .  A
C448        H452   1.059       .  S
C449        C450   1.406       .  A
C449        C458   1.510       .  S
C450        H453   1.083       .  S
C454        C455   1.426       .  A
C454        C459   1.425       .  A
C454        C518   1.478       .  S
C455        C456   1.403       .  A
C455        H460   1.083       .  S
C456        C457   1.396       .  A
C457        C458   1.397       .  A
C457        H461   1.056       .  S
C458        C459   1.403       .  A
C459        H462   1.083       .  S
O463        C474   1.286       .  A
O463      Eu1915   2.445       .  S
O464        C475   1.293       .  A
O464      Eu1914   2.463       .  S
O465        C476   1.286       .  A
O465       Eu471   2.440       .  S
O466        C477   1.285       .  A
O467        C477   1.294       .  A
O467      Eu1917   2.468       .  S
O468        C476   1.293       .  A
O468      Eu1916   2.465       .  S
O469        C475   1.289       .  A
O469       Eu471   2.459       .  S
O470        C474   1.293       .  A
O470      Eu1179   2.463       .  S
Eu471      O1178   2.463   1_545  S
Eu471      O1543   2.339       .  S
Eu471      O1889   2.354       .  S
Eu471      O1534   2.361       .  S
Eu471      O1895   2.341       .  S
O472      Eu1533   2.361   1_456  S
O472       Eu501   2.356       .  S
O473      Eu1887   2.354   1_455  S
O473      Eu1207   2.363   1_545  S
O473       Eu500   2.364       .  S
C474        C694   1.498       .  S
C475        C678   1.493       .  S
C476        C585   1.487       .  S
C477        C633   1.490       .  S
H478        O479   0.965       .  S
O479      Eu1887   2.341   1_455  S
O479       Eu500   2.340       .  S
O479       Eu498   2.350       .  S
H480        O481   0.964   1_655  S
O481      Eu1533   2.339   1_456  S
O481       Eu853   2.340   1_545  S
O481       Eu501   2.339       .  S
O482        C505   1.294       .  A
O482       Eu498   2.480       .  S
O483        C506   1.289       .  A
O483       Eu499   2.443       .  S
O484        C507   1.295       .  A
O484       Eu500   2.478       .  S
O485        C508   1.289       .  A
O485       Eu501   2.455       .  S
O486        C509   1.288       .  A
O486      Eu1209   2.447       .  S
O487        C510   1.291       .  A
O487      Eu1208   2.462       .  S
O488        C511   1.294       .  A
O488       Eu502   2.481       .  S
O489        C512   1.296       .  A
O490        C511   1.291       .  A
O490       Eu500   2.456       .  S
O491        C512   1.289       .  A
O491       Eu501   2.459       .  S
O492        C507   1.289       .  A
O492       Eu498   2.453       .  S
O493        C510   1.291       .  A
O493       Eu499   2.463       .  S
O494        C509   1.294       .  A
O495        C508   1.292       .  A
O496        C505   1.292       .  A
O496       Eu502   2.455       .  S
O497        C506   1.291       .  A
O497      Eu1210   2.464       .  S
Eu498      O1880   2.463   1_455  S
Eu498       O504   2.366       .  S
Eu499      O1879   2.445   1_455  S
Eu499      O1181   2.363       .  S
Eu499       O835   2.341       .  S
Eu499       O857   2.358       .  S
Eu499      O1222   2.346       .  S
Eu500      O1884   2.465   1_455  S
Eu500      O1195   2.462   1_545  S
Eu500       O514   2.348       .  S
Eu500       O504   2.366       .  S
Eu501      O1883   2.468   1_455  S
Eu501      O1194   2.447   1_545  S
Eu501       O503   2.367       .  S
Eu501       O516   2.344       .  S
Eu502      O1205   2.464   1_545  S
Eu502       O514   2.337       .  S
Eu502       O504   2.365       .  S
O503       Eu853   2.358   1_545  S
C505        C662   1.496       .  S
C506        C649   1.488       .  S
C507        C537   1.485       .  S
C508        C566   1.475       .  S
C509        C553   1.476       .  S
C510        C521   1.472       .  S
C511        C601   1.498       .  S
C512        C617   1.503       .  S
H513        O514   0.965       .  S
O514      Eu1207   2.346   1_545  S
H515        O516   0.965       .  S
C517        C518   1.404       .  A
C517        C522   1.405       .  A
C517       H1940   1.084       .  S
C518        C519   1.412       .  A
C519        C520   1.411       .  A
C519        C526   1.515       .  S
C520        C521   1.406       .  A
C520        H525   1.084       .  S
C521        C522   1.412       .  A
C522       C1939   1.519   1_455  S
C523       C1938   1.519       .  S
C523        F527   1.384       .  S
C523        F528   1.383       .  S
C523        F529   1.383       .  S
H524       C1933   1.084       .  S
C526        F530   1.383       .  S
C526        F531   1.383       .  S
C526        F532   1.384       .  S
C533        C534   1.401       .  A
C533        C538   1.409       .  A
C533        H540   1.083   1_455  S
C534        C535   1.426       .  A
C535        C536   1.406       .  A
C535        C542   1.523       .  S
C536        C537   1.399       .  A
C536        H541   1.083       .  S
C537        C538   1.423       .  A
C538        C539   1.517   1_455  S
C539        F543   1.385       .  S
C539        F544   1.381       .  S
C539        F545   1.382   1_655  S
C542        F546   1.381       .  S
C542        F547   1.383       .  S
C542        F548   1.385       .  S
C549        C550   1.401       .  A
C549        C554   1.411       .  A
C549       H1972   1.083   1_455  S
C550        C551   1.421       .  A
C551        C552   1.404       .  A
C551        C558   1.521       .  S
C552        C553   1.397       .  A
C552        H557   1.084       .  S
C553        C554   1.420       .  A
C554       C1971   1.518   1_455  S
C555       C1970   1.518       .  S
C555        F559   1.384       .  S
C555        F560   1.381       .  S
C555        F561   1.381       .  S
H556       C1965   1.083       .  S
C558        F562   1.383       .  S
C558        F563   1.382       .  S
C558        F564   1.385       .  S
C565        C566   1.406       .  A
C565        C570   1.406       .  A
C565        H572   1.080       .  S
C566        C567   1.410       .  A
C567        C568   1.404       .  A
C567       C1990   1.515   1_455  S
C568        C569   1.404       .  A
C568       H1989   1.084       .  S
C569        C570   1.410       .  A
C570        C571   1.517       .  S
C571        F575   1.385       .  S
C571        F576   1.383       .  S
C571        F577   1.382       .  S
H573       C1984   1.084       .  S
C574       C1983   1.515       .  S
C574        F578   1.379       .  S
C574        F579   1.383       .  S
C574        F580   1.384       .  S
C581        C582   1.406       .  A
C581        C586   1.403       .  A
C581        H588   1.082       .  S
C582        C583   1.429       .  A
C583        C584   1.408       .  A
C583        C590   1.520       .  S
C584        C585   1.404       .  A
C584        H589   1.084       .  S
C585        C586   1.419       .  A
C586        C587   1.520       .  S
C587        F591   1.383       .  S
C587        F592   1.383   1_545  S
C587        F593   1.384   1_545  S
C590        F594   1.384       .  S
C590        F595   1.382       .  S
C590        F596   1.385       .  S
C597        C598   1.408       .  A
C597        C602   1.407       .  A
C597        H604   1.082       .  S
C598        C599   1.421       .  A
C599        C600   1.412       .  A
C599        C606   1.517   1_545  S
C600        C601   1.410       .  A
C600        H605   1.084       .  S
C601        C602   1.419       .  A
C602        C603   1.519       .  S
C603        F607   1.384       .  S
C603        F608   1.383       .  S
C603        F609   1.383       .  S
C606        F610   1.383   1_565  S
C606        F611   1.383       .  S
C606        F612   1.382       .  S
C613        C614   1.408       .  A
C613        C618   1.410       .  A
C613        H620   1.080       .  S
C614        C615   1.434       .  A
C615        C616   1.409       .  A
C615        C622   1.526       .  S
C616        C617   1.403       .  A
C616        H621   1.082       .  S
C617        C618   1.425       .  A
C618        C619   1.521       .  S
C619        F623   1.385       .  S
C619        F624   1.375       .  S
C619        F625   1.384       .  S
C622        F626   1.381       .  S
C622        F627   1.383       .  S
C622        F628   1.384       .  S
C629        C630   1.400       .  A
C629        C634   1.407       .  A
C629        H636   1.083       .  S
C630        C631   1.424       .  A
C631        C632   1.403       .  A
C631        C638   1.525       .  S
C632        C633   1.402       .  A
C632        H637   1.083       .  S
C633        C634   1.427       .  A
C634        C635   1.519       .  S
C635        F639   1.385   1_545  S
C635        F640   1.383       .  S
C635        F641   1.380   1_545  S
C638        F642   1.383       .  S
C638        F643   1.381       .  S
C638        F644   1.385       .  S
C645        C650   1.402       .  A
C645        H652   1.082       .  S
C646        C647   1.419       .  A
C647        C648   1.408       .  A
C647        C654   1.518       .  S
C648        C649   1.410       .  A
C648        H653   1.084       .  S
C650        C651   1.522       .  S
C651       F1010   1.383       .  S
C651       F1365   1.383       .  S
C654        F658   1.383       .  S
F656       C1005   1.383       .  S
F657       C1359   1.383       .  S
C661        C666   1.409   1_554  A
C661        H668   1.081       .  S
C662        C663   1.420       .  A
C663        C664   1.407       .  A
C663        C670   1.514       .  S
C664        C665   1.407       .  A
C664        H669   1.081       .  S
C666        C667   1.525   1_556  S
C667        F673   1.381   1_554  S
C670        F674   1.383       .  S
C677        C682   1.403       .  A
C677        H684   1.079       .  S
C678        C679   1.425       .  A
C679        C680   1.410       .  A
C679        C686   1.520       .  S
C680        H685   1.083       .  S
C681        C682   1.424   1_554  A
C682        C683   1.525       .  S
C683        F687   1.385       .  S
C683        F689   1.383       .  S
C686        F690   1.382       .  S
C686        F692   1.385       .  S
C693        C694   1.405       .  A
C693        C698   1.405       .  A
C693        H700   1.081       .  S
C695        C696   1.407       .  A
C695        C702   1.523       .  S
C696        H701   1.081       .  S
C697        C698   1.429       .  A
C698        C699   1.527       .  S
C699        F703   1.382       .  S
C699        F704   1.383       .  S
C702       F1768   1.383   1_556  S
C702       F2123   1.379       .  S
C702        F708   1.385       .  S
F706       C1764   1.383       .  S
F707       C2118   1.379       .  S
C709       C1064   1.426   1_556  A
C709        C714   1.416       .  A
C709       C1051   1.501       .  S
C710       C1063   1.426       .  A
C710        C711   1.398       .  A
C710        H715   1.081       .  S
C711        C712   1.403       .  A
C711        C720   1.498       .  S
C712       C1067   1.402       .  A
C712        H716   1.073       .  S
C713       C1066   1.402       .  A
C713        C714   1.400   1_554  A
C713        C738   1.489   1_554  S
C714        H717   1.077       .  S
C718        C719   1.423       .  A
C718        C723   1.425       .  A
C718       C1035   1.488       .  S
C719        C720   1.402       .  A
C719        H724   1.082       .  S
C720        C721   1.394       .  A
C721        C722   1.401       .  A
C721        H725   1.064       .  S
C722        C723   1.402       .  A
C722       C1083   1.505       .  S
C723        H726   1.083       .  S
C727        C728   1.431       .  A
C727        C732   1.434       .  A
C727       C1019   1.504       .  S
C728        C729   1.407       .  A
C728        H733   1.078       .  S
C729        C730   1.391   1_556  A
C729       C1076   1.505       .  S
C730        C731   1.387   1_554  A
C730        H734   1.058       .  S
C731        C732   1.397       .  A
C731        C740   1.502       .  S
C732        H735   1.081       .  S
C736        C737   1.421       .  A
C736        C741   1.426   1_554  A
C736       C1000   1.493       .  S
C737        C738   1.397   1_554  A
C737        H742   1.084       .  S
C738        C739   1.393       .  A
C739        C740   1.402       .  A
C739        H743   1.069       .  S
C740        C741   1.404       .  A
C741        H744   1.079   1_556  S
C745        C746   1.425       .  A
C745        C750   1.418       .  A
C745        C984   1.483       .  S
C746        C747   1.403       .  A
C746        H751   1.083       .  S
C747        C748   1.403       .  A
C747        C756   1.506       .  S
C748        C749   1.396       .  A
C748        H752   1.064       .  S
C749        C750   1.398       .  A
C749        C776   1.494       .  S
C750        H753   1.082       .  S
C754        C755   1.432       .  A
C754        C759   1.440       .  A
C754        C968   1.511       .  S
C755        C756   1.406       .  A
C755        H760   1.077       .  S
C756        C757   1.388       .  A
C757        C758   1.386       .  A
C757        H761   1.055       .  S
C758        C759   1.402       .  A
C758        C765   1.510       .  S
C759        H762   1.080       .  S
C763        C764   1.429       .  A
C763        C768   1.430       .  A
C763        C952   1.501       .  S
C764        C765   1.404       .  A
C764        H769   1.078       .  S
C765        C766   1.402       .  A
C766        C767   1.393       .  A
C766        H770   1.064       .  S
C767        C768   1.404       .  A
C767        C774   1.505       .  S
C768        H771   1.083       .  S
C772        C773   1.431       .  A
C772        C777   1.416       .  A
C772        C936   1.500       .  S
C773        C774   1.407       .  A
C773        H778   1.083       .  S
C774        C775   1.401       .  A
C775        C776   1.402       .  A
C775        H779   1.071       .  S
C776        C777   1.392       .  A
C777        H780   1.074       .  S
C781        C782   1.420       .  A
C781        C786   1.418       .  A
C781        C923   1.472       .  S
C782        C783   1.402       .  A
C782        H787   1.083       .  S
C783        C784   1.400       .  A
C783        C792   1.503       .  S
C784        C785   1.401       .  A
C784        H788   1.064       .  S
C785        C786   1.399       .  A
C785        C801   1.500       .  S
C786        H789   1.083       .  S
C790        C791   1.422       .  A
C790        C795   1.426       .  A
C790        C904   1.480       .  S
C791        C792   1.401       .  A
C791        H796   1.083       .  S
C792        C793   1.395       .  A
C793        C794   1.399       .  A
C793        H797   1.059       .  S
C794        C795   1.406       .  A
C794        C810   1.510       .  S
C795        H798   1.083       .  S
C799        C800   1.423       .  A
C799        C804   1.429       .  A
C799        C888   1.487       .  S
C800        C801   1.401       .  A
C800        H805   1.082       .  S
C801        C802   1.394       .  A
C802        C803   1.397       .  A
C802        H806   1.059       .  S
C803        C804   1.406       .  A
C803        C812   1.510       .  S
C804        H807   1.083       .  S
C808        C809   1.426       .  A
C808        C813   1.425       .  A
C808        C872   1.478       .  S
C809        C810   1.403       .  A
C809        H814   1.083       .  S
C810        C811   1.396       .  A
C811        C812   1.397       .  A
C811        H815   1.056       .  S
C812        C813   1.403       .  A
C813        H816   1.083       .  S
O817        C828   1.286       .  A
O817      Eu2269   2.445       .  S
O818        C829   1.294       .  A
O818      Eu2268   2.463       .  S
O819        C830   1.286       .  A
O819       Eu825   2.440       .  S
O820        C831   1.285       .  A
O820      Eu1179   2.440       .  S
O821        C831   1.294       .  A
O821      Eu2271   2.468       .  S
O822        C830   1.293       .  A
O822      Eu2270   2.465       .  S
O823        C829   1.288       .  A
O823       Eu825   2.458       .  S
O824        C828   1.293       .  A
Eu825      O1174   2.440   1_554  S
Eu825      O2605   2.339   1_554  S
Eu825      O2243   2.353       .  S
Eu825      O2596   2.361   1_554  S
Eu825      O2249   2.341       .  S
O826      Eu2595   2.361   1_455  S
O826       Eu855   2.357       .  S
O826      Eu1206   2.362       .  S
O827      Eu2241   2.354   1_455  S
O827       Eu854   2.364       .  S
C828       C1048   1.498       .  S
C829       C1032   1.492       .  S
C830        C939   1.487       .  S
C831        C987   1.490       .  S
H832        O833   0.965       .  S
O833      Eu2241   2.341   1_455  S
O833       Eu854   2.340       .  S
O833       Eu852   2.350       .  S
H834        O835   0.965   1_655  S
O835      Eu2595   2.339   1_455  S
O835       Eu855   2.340       .  S
O836        C859   1.294       .  A
O836       Eu852   2.480   1_556  S
O837        C860   1.289       .  A
O837       Eu853   2.443       .  S
O838        C861   1.295       .  A
O838       Eu854   2.478       .  S
O839        C862   1.289       .  A
O839       Eu855   2.454       .  S
O840        C863   1.288       .  A
O841        C864   1.291       .  A
O842        C865   1.294       .  A
O842       Eu856   2.481   1_554  S
O843        C866   1.296       .  A
O843      Eu1210   2.474       .  S
O844        C865   1.291       .  A
O844       Eu854   2.456       .  S
O845        C866   1.289       .  A
O845       Eu855   2.458       .  S
O846        C861   1.289       .  A
O846       Eu852   2.453       .  S
O847        C864   1.291       .  A
O847       Eu853   2.463   1_554  S
O848        C863   1.294       .  A
O848      Eu1207   2.478       .  S
O849        C862   1.292       .  A
O849      Eu1206   2.467       .  S
O850        C859   1.292       .  A
O850       Eu856   2.455       .  S
O851        C860   1.291       .  A
Eu852      O2234   2.463   1_455  S
Eu852      O1203   2.467   1_554  S
Eu852      O1180   2.362   1_554  S
Eu852      O1224   2.340   1_554  S
Eu852       O858   2.366       .  S
Eu853      O2233   2.445   1_455  S
Eu853      O1202   2.478       .  S
Eu854      O2238   2.465   1_455  S
Eu854       O868   2.348       .  S
Eu854       O858   2.366       .  S
Eu855      O2237   2.468   1_455  S
Eu855       O857   2.367       .  S
Eu855       O870   2.344       .  S
Eu856      O1197   2.474       .  S
Eu856      O1211   2.363       .  S
Eu856       O868   2.337   1_556  S
Eu856      O1224   2.349       .  S
Eu856       O858   2.365   1_556  S
O857      Eu1210   2.363       .  S
C859       C1016   1.496       .  S
C860       C1003   1.488   1_556  S
C861        C891   1.485       .  S
C862        C920   1.475       .  S
C863        C907   1.476       .  S
C864        C875   1.472       .  S
C865        C955   1.498       .  S
C866        C971   1.503       .  S
H867        O868   0.965       .  S
H869        O870   0.965       .  S
O870      Eu1206   2.340       .  S
O870      Eu1210   2.349       .  S
C871        C872   1.404       .  A
C871        C876   1.405       .  A
C871       H2294   1.084       .  S
C872        C873   1.412       .  A
C873        C874   1.411       .  A
C873        C880   1.515       .  S
C874        C875   1.406       .  A
C874        H879   1.084       .  S
C875        C876   1.412       .  A
C876       C2293   1.519   1_455  S
C877       C2292   1.519       .  S
C877        F881   1.384       .  S
C877        F882   1.383       .  S
C877        F883   1.383       .  S
H878       C2287   1.084       .  S
C880        F884   1.383       .  S
C880        F885   1.383       .  S
C880        F886   1.384       .  S
C887        C888   1.401       .  A
C887        C892   1.409       .  A
C887        H894   1.083   1_455  S
C888        C889   1.426       .  A
C889        C890   1.406       .  A
C889        C896   1.523       .  S
C890        C891   1.399       .  A
C890        H895   1.083       .  S
C891        C892   1.423       .  A
C892        C893   1.517   1_455  S
C893        F897   1.385       .  S
C893        F898   1.381       .  S
C893        F899   1.382   1_655  S
C896        F900   1.381       .  S
C896        F901   1.383       .  S
C896        F902   1.385       .  S
C903        C904   1.401       .  A
C903        C908   1.411       .  A
C903       H2326   1.083   1_455  S
C904        C905   1.421       .  A
C905        C906   1.404       .  A
C905        C912   1.521       .  S
C906        C907   1.397       .  A
C906        H911   1.084       .  S
C907        C908   1.420       .  A
C908       C2325   1.518   1_455  S
C909       C2324   1.518       .  S
C909        F913   1.384       .  S
C909        F914   1.381       .  S
C909        F915   1.381       .  S
H910       C2319   1.083       .  S
C912        F916   1.383       .  S
C912        F917   1.382       .  S
C912        F918   1.385       .  S
C919        C920   1.406       .  A
C919        C924   1.406       .  A
C919        H926   1.080       .  S
C920        C921   1.410       .  A
C921        C922   1.404       .  A
C921       C2344   1.515   1_455  S
C922        C923   1.404       .  A
C922       H2343   1.084       .  S
C923        C924   1.410       .  A
C924        C925   1.517       .  S
C925        F929   1.385       .  S
C925        F930   1.383       .  S
C925        F931   1.382       .  S
H927       C2338   1.084       .  S
C928       C2337   1.515       .  S
C928        F932   1.379       .  S
C928        F933   1.383       .  S
C928        F934   1.384       .  S
C935        C936   1.406       .  A
C935        C940   1.403       .  A
C935        H942   1.082       .  S
C936        C937   1.429       .  A
C937        C938   1.408       .  A
C937        C944   1.520       .  S
C938        C939   1.404       .  A
C938        H943   1.084       .  S
C939        C940   1.419       .  A
C940        C941   1.520       .  S
C941        F945   1.383       .  S
C941        F946   1.383       .  S
C941        F947   1.384       .  S
C944        F948   1.384       .  S
C944        F949   1.382       .  S
C944        F950   1.385       .  S
C951        C952   1.408       .  A
C951        C956   1.407       .  A
C951        H958   1.082       .  S
C952        C953   1.421       .  A
C953        C954   1.412       .  A
C953        C960   1.517       .  S
C954        C955   1.410       .  A
C954        H959   1.084       .  S
C955        C956   1.419       .  A
C956        C957   1.519       .  S
C957        F961   1.384       .  S
C957        F962   1.383       .  S
C957        F963   1.383       .  S
C960        F964   1.383       .  S
C960        F965   1.383       .  S
C960        F966   1.382       .  S
C967        C968   1.408       .  A
C967        C972   1.410       .  A
C967        H974   1.080       .  S
C968        C969   1.434       .  A
C969        C970   1.409       .  A
C969        C976   1.526       .  S
C970        C971   1.403       .  A
C970        H975   1.082       .  S
C971        C972   1.425       .  A
C972        C973   1.521       .  S
C973        F977   1.385       .  S
C973        F978   1.375       .  S
C973        F979   1.384       .  S
C976        F980   1.381       .  S
C976        F981   1.383       .  S
C976        F982   1.384       .  S
C983        C984   1.400       .  A
C983        C988   1.407       .  A
C983        H990   1.083       .  S
C984        C985   1.424       .  A
C985        C986   1.403       .  A
C985        C992   1.525       .  S
C986        C987   1.402       .  A
C986        H991   1.083       .  S
C987        C988   1.427       .  A
C988        C989   1.519       .  S
C989        F993   1.385       .  S
C989        F994   1.383       .  S
C989        F995   1.380       .  S
C992        F996   1.383       .  S
C992        F997   1.381       .  S
C992        F998   1.385       .  S
C999       C1354   1.410       .  A
C999       C1004   1.402       .  A
C999       H1006   1.082       .  S
C1000      C1353   1.410   1_554  A
C1000      C1001   1.419       .  A
C1001      C1002   1.408       .  A
C1001      C1008   1.518       .  S
C1002      C1003   1.410       .  A
C1002      H1007   1.084       .  S
C1003      C1358   1.418   1_554  A
C1004      C1357   1.418       .  A
C1004      C1005   1.522       .  S
C1005      F1363   1.384       .  S
C1008      F1012   1.383       .  S
C1008      F1367   1.383       .  S
C1008      F1368   1.385       .  S
F1009      C1359   1.384       .  S
F1013      C1362   1.383       .  S
F1014      C1362   1.385       .  S
C1015      C1370   1.402       .  A
C1015      C1020   1.409       .  A
C1015      H1022   1.081       .  S
C1016      C1369   1.402   1_556  A
C1016      C1017   1.420       .  A
C1017      C1018   1.407       .  A
C1017      C1024   1.514       .  S
C1018      C1019   1.407       .  A
C1018      H1023   1.081       .  S
C1019      C1374   1.432       .  A
C1020      C1373   1.432       .  A
C1020      C1021   1.525       .  S
C1021      F1379   1.382       .  S
C1021      F1380   1.382       .  S
C1021      F1027   1.381       .  S
C1024      F1028   1.383       .  S
C1024      F1383   1.374       .  S
C1024      F1384   1.385       .  S
F1025      C1375   1.382       .  S
F1026      C1375   1.382       .  S
F1029      C1378   1.374       .  S
F1030      C1378   1.385       .  S
C1031      C1386   1.402       .  A
C1031      C1036   1.403       .  A
C1031      H1038   1.079       .  S
C1032      C1385   1.399   1_554  A
C1032      C1033   1.424       .  A
C1033      C1034   1.410       .  A
C1033      C1040   1.520       .  S
C1034      C1389   1.405       .  A
C1034      H1039   1.083       .  S
C1035      C1388   1.404       .  A
C1035      C1036   1.424       .  A
C1036      C1037   1.525       .  S
C1037      F1041   1.385       .  S
C1037      F1396   1.381       .  S
C1037      F1043   1.383       .  S
C1040      F1044   1.382       .  S
C1040      F1399   1.383       .  S
C1040      F1046   1.384       .  S
F1042      C1391   1.382   1_554  S
F1045      C1394   1.383       .  S
C1047      C1048   1.405   1_554  A
C1047      C1052   1.405       .  A
C1047      H1054   1.081       .  S
C1048      C1403   1.426       .  A
C1049      C1402   1.426       .  A
C1049      C1050   1.407       .  A
C1049      C1056   1.523       .  S
C1050      C1405   1.406       .  A
C1050      H1055   1.081       .  S
C1051      C1404   1.406       .  A
C1051      C1052   1.429   1_556  A
C1052      C1053   1.527       .  S
C1053      F1057   1.382       .  S
C1053      F1058   1.383       .  S
C1053      F1413   1.380   1_554  S
C1056      F2830   1.383       .  S
C1056      F2477   1.379       .  S
C1056      F1062   1.385       .  S
F1059      C1407   1.380       .  S
F1060      C2826   1.383   1_554  S
F1061      C2472   1.379       .  S
C1063      C1068   1.416       .  A
C1063      C1405   1.501       .  S
C1064      C1065   1.398       .  A
C1064      H1069   1.081       .  S
C1065      C1066   1.403       .  A
C1065      C1074   1.498       .  S
C1066      H1070   1.073       .  S
C1067      C1068   1.400       .  A
C1067      C1092   1.489       .  S
C1068      H1071   1.077       .  S
C1072      C1073   1.422       .  A
C1072      C1077   1.428       .  A
C1072      C1389   1.489       .  S
C1073      C1074   1.403       .  A
C1073      H1078   1.082       .  S
C1074      C1075   1.394   1_554  A
C1075      C1076   1.400       .  A
C1075      H1079   1.064       .  S
C1076      C1077   1.402   1_556  A
C1077      H1080   1.083       .  S
C1081      C1082   1.431       .  A
C1081      C1086   1.434       .  A
C1081      C1373   1.504       .  S
C1082      C1083   1.406       .  A
C1082      H1087   1.078       .  S
C1083      C1084   1.391       .  A
C1084      C1085   1.387       .  A
C1084      H1088   1.058       .  S
C1085      C1086   1.397       .  A
C1085      C1094   1.502       .  S
C1086      H1089   1.081       .  S
C1090      C1091   1.421       .  A
C1090      C1095   1.426       .  A
C1090      C1354   1.493       .  S
C1091      C1092   1.397       .  A
C1091      H1096   1.084       .  S
C1092      C1093   1.393       .  A
C1093      C1094   1.402       .  A
C1093      H1097   1.069       .  S
C1094      C1095   1.404       .  A
C1095      H1098   1.079       .  S
C1099      C1100   1.425       .  A
C1099      C1104   1.418       .  A
C1099      C1338   1.483       .  S
C1100      C1101   1.403       .  A
C1100      H1105   1.083       .  S
C1101      C1102   1.403       .  A
C1101      C1110   1.506       .  S
C1102      C1103   1.396       .  A
C1102      H1106   1.064       .  S
C1103      C1104   1.398       .  A
C1103      C1130   1.494       .  S
C1104      H1107   1.082       .  S
C1108      C1109   1.432       .  A
C1108      C1113   1.440       .  A
C1108      C1322   1.511       .  S
C1109      C1110   1.406       .  A
C1109      H1114   1.077       .  S
C1110      C1111   1.388       .  A
C1111      C1112   1.386       .  A
C1111      H1115   1.055       .  S
C1112      C1113   1.402       .  A
C1112      C1119   1.510       .  S
C1113      H1116   1.080       .  S
C1117      C1118   1.429       .  A
C1117      C1122   1.430       .  A
C1117      C1306   1.501       .  S
C1118      C1119   1.404       .  A
C1118      H1123   1.078       .  S
C1119      C1120   1.402       .  A
C1120      C1121   1.393       .  A
C1120      H1124   1.064       .  S
C1121      C1122   1.404       .  A
C1121      C1128   1.505       .  S
C1122      H1125   1.083       .  S
C1126      C1127   1.431       .  A
C1126      C1131   1.416       .  A
C1126      C1290   1.500       .  S
C1127      C1128   1.407       .  A
C1127      H1132   1.083       .  S
C1128      C1129   1.401       .  A
C1129      C1130   1.402       .  A
C1129      H1133   1.071       .  S
C1130      C1131   1.392       .  A
C1131      H1134   1.074       .  S
C1135      C1136   1.420       .  A
C1135      C1140   1.418       .  A
C1135      C1277   1.472       .  S
C1136      C1137   1.402       .  A
C1136      H1141   1.083       .  S
C1137      C1138   1.400       .  A
C1137      C1146   1.503       .  S
C1138      C1139   1.401       .  A
C1138      H1142   1.064       .  S
C1139      C1140   1.399       .  A
C1139      C1155   1.500       .  S
C1140      H1143   1.083       .  S
C1144      C1145   1.422       .  A
C1144      C1149   1.426       .  A
C1144      C1258   1.480       .  S
C1145      C1146   1.401       .  A
C1145      H1150   1.083       .  S
C1146      C1147   1.395       .  A
C1147      C1148   1.399       .  A
C1147      H1151   1.059       .  S
C1148      C1149   1.406       .  A
C1148      C1164   1.510       .  S
C1149      H1152   1.083       .  S
C1153      C1154   1.423       .  A
C1153      C1158   1.429       .  A
C1153      C1242   1.487       .  S
C1154      C1155   1.401       .  A
C1154      H1159   1.082       .  S
C1155      C1156   1.394       .  A
C1156      C1157   1.397       .  A
C1156      H1160   1.059       .  S
C1157      C1158   1.406       .  A
C1157      C1166   1.510       .  S
C1158      H1161   1.083       .  S
C1162      C1163   1.426       .  A
C1162      C1167   1.425       .  A
C1162      C1226   1.478       .  S
C1163      C1164   1.403       .  A
C1163      H1168   1.083       .  S
C1164      C1165   1.396       .  A
C1165      C1166   1.397       .  A
C1165      H1169   1.056       .  S
C1166      C1167   1.403       .  A
C1167      H1170   1.083       .  S
O1171      C1182   1.286       .  A
O1171     Eu2623   2.445       .  S
O1172      C1183   1.293       .  A
O1172     Eu2622   2.463       .  S
O1173      C1184   1.286       .  A
O1173     Eu1179   2.440       .  S
O1174      C1185   1.285       .  A
O1175      C1185   1.294       .  A
O1175     Eu2625   2.468       .  S
O1176      C1184   1.293       .  A
O1176     Eu2624   2.465       .  S
O1177      C1183   1.289       .  A
O1177     Eu1179   2.459       .  S
O1178      C1182   1.293       .  A
Eu1179     O2251   2.339       .  S
Eu1179     O2597   2.354       .  S
Eu1179     O2242   2.361       .  S
Eu1179     O2603   2.341       .  S
O1180     Eu2241   2.361   1_456  S
O1180     Eu1209   2.357       .  S
O1181     Eu2595   2.354   1_455  S
O1181     Eu1208   2.364       .  S
C1182      C1402   1.498       .  S
C1183      C1386   1.493       .  S
C1184      C1293   1.487       .  S
C1185      C1341   1.490       .  S
H1186      O1187   0.965       .  S
O1187     Eu2595   2.341   1_455  S
O1187     Eu1208   2.340       .  S
O1187     Eu1206   2.350       .  S
H1188      O1189   0.965   1_655  S
O1189     Eu2241   2.339   1_456  S
O1189     Eu1209   2.339       .  S
O1190      C1213   1.294       .  A
O1190     Eu1206   2.480       .  S
O1191      C1214   1.289       .  A
O1191     Eu1207   2.443       .  S
O1192      C1215   1.295       .  A
O1192     Eu1208   2.478       .  S
O1193      C1216   1.289       .  A
O1193     Eu1209   2.454       .  S
O1194      C1217   1.288       .  A
O1195      C1218   1.291       .  A
O1196      C1219   1.294       .  A
O1196     Eu1210   2.481       .  S
O1197      C1220   1.296       .  A
O1198      C1219   1.291       .  A
O1198     Eu1208   2.456       .  S
O1199      C1220   1.289       .  A
O1199     Eu1209   2.458       .  S
O1200      C1215   1.289       .  A
O1200     Eu1206   2.453       .  S
O1201      C1218   1.291       .  A
O1201     Eu1207   2.463       .  S
O1202      C1217   1.294       .  A
O1203      C1216   1.292       .  A
O1204      C1213   1.292       .  A
O1204     Eu1210   2.455       .  S
O1205      C1214   1.291       .  A
Eu1206     O2588   2.463   1_455  S
Eu1206     O1212   2.366       .  S
Eu1207     O2587   2.445   1_455  S
Eu1208     O2592   2.465   1_455  S
Eu1208     O1222   2.348       .  S
Eu1208     O1212   2.366       .  S
Eu1209     O2591   2.468   1_455  S
Eu1209     O1211   2.367       .  S
Eu1209     O1224   2.344       .  S
Eu1210     O1222   2.337       .  S
Eu1210     O1212   2.365       .  S
C1213      C1370   1.496       .  S
C1214      C1357   1.488       .  S
C1215      C1245   1.485       .  S
C1216      C1274   1.475       .  S
C1217      C1261   1.476       .  S
C1218      C1229   1.472       .  S
C1219      C1309   1.498       .  S
C1220      C1325   1.503       .  S
H1221      O1222   0.965       .  S
H1223      O1224   0.965       .  S
C1225      C1226   1.404       .  A
C1225      C1230   1.405       .  A
C1225      H2648   1.084       .  S
C1226      C1227   1.412       .  A
C1227      C1228   1.411       .  A
C1227      C1234   1.515       .  S
C1228      C1229   1.406       .  A
C1228      H1233   1.084       .  S
C1229      C1230   1.412       .  A
C1230      C2647   1.519   1_455  S
C1231      C2646   1.519       .  S
C1231      F1235   1.384       .  S
C1231      F1236   1.383       .  S
C1231      F1237   1.383       .  S
H1232      C2641   1.084       .  S
C1234      F1238   1.383       .  S
C1234      F1239   1.383       .  S
C1234      F1240   1.384       .  S
C1241      C1242   1.401       .  A
C1241      C1246   1.409       .  A
C1241      H1248   1.083   1_455  S
C1242      C1243   1.426       .  A
C1243      C1244   1.406       .  A
C1243      C1250   1.523       .  S
C1244      C1245   1.399       .  A
C1244      H1249   1.083       .  S
C1245      C1246   1.423       .  A
C1246      C1247   1.517   1_455  S
C1247      F1251   1.385       .  S
C1247      F1252   1.381       .  S
C1247      F1253   1.382   1_655  S
C1250      F1254   1.381       .  S
C1250      F1255   1.383       .  S
C1250      F1256   1.385       .  S
C1257      C1258   1.401       .  A
C1257      C1262   1.411       .  A
C1257      H2680   1.083   1_455  S
C1258      C1259   1.421       .  A
C1259      C1260   1.404       .  A
C1259      C1266   1.521       .  S
C1260      C1261   1.397       .  A
C1260      H1265   1.084       .  S
C1261      C1262   1.420       .  A
C1262      C2679   1.518   1_455  S
C1263      C2678   1.518       .  S
C1263      F1267   1.384       .  S
C1263      F1268   1.381       .  S
C1263      F1269   1.381       .  S
H1264      C2673   1.083       .  S
C1266      F1270   1.383       .  S
C1266      F1271   1.382       .  S
C1266      F1272   1.385       .  S
C1273      C1274   1.406       .  A
C1273      C1278   1.406       .  A
C1273      H1280   1.080       .  S
C1274      C1275   1.410       .  A
C1275      C1276   1.404       .  A
C1275      C2698   1.515   1_455  S
C1276      C1277   1.404       .  A
C1276      H2697   1.084       .  S
C1277      C1278   1.410       .  A
C1278      C1279   1.517       .  S
C1279      F1283   1.385       .  S
C1279      F1284   1.383       .  S
C1279      F1285   1.382       .  S
H1281      C2692   1.084       .  S
C1282      C2691   1.515       .  S
C1282      F1286   1.379       .  S
C1282      F1287   1.383       .  S
C1282      F1288   1.384       .  S
C1289      C1290   1.406       .  A
C1289      C1294   1.403       .  A
C1289      H1296   1.082       .  S
C1290      C1291   1.429       .  A
C1291      C1292   1.408       .  A
C1291      C1298   1.520       .  S
C1292      C1293   1.404       .  A
C1292      H1297   1.084       .  S
C1293      C1294   1.419       .  A
C1294      C1295   1.520       .  S
C1295      F1299   1.383       .  S
C1295      F1300   1.383       .  S
C1295      F1301   1.384       .  S
C1298      F1302   1.384       .  S
C1298      F1303   1.382       .  S
C1298      F1304   1.385       .  S
C1305      C1306   1.408       .  A
C1305      C1310   1.407       .  A
C1305      H1312   1.082       .  S
C1306      C1307   1.421       .  A
C1307      C1308   1.412       .  A
C1307      C1314   1.517       .  S
C1308      C1309   1.410       .  A
C1308      H1313   1.084       .  S
C1309      C1310   1.419       .  A
C1310      C1311   1.519       .  S
C1311      F1315   1.384       .  S
C1311      F1316   1.383       .  S
C1311      F1317   1.383       .  S
C1314      F1318   1.383       .  S
C1314      F1319   1.383       .  S
C1314      F1320   1.382       .  S
C1321      C1322   1.408       .  A
C1321      C1326   1.410       .  A
C1321      H1328   1.080       .  S
C1322      C1323   1.434       .  A
C1323      C1324   1.409       .  A
C1323      C1330   1.526       .  S
C1324      C1325   1.403       .  A
C1324      H1329   1.082       .  S
C1325      C1326   1.425       .  A
C1326      C1327   1.521       .  S
C1327      F1331   1.385       .  S
C1327      F1332   1.375       .  S
C1327      F1333   1.384       .  S
C1330      F1334   1.381       .  S
C1330      F1335   1.383       .  S
C1330      F1336   1.384       .  S
C1337      C1338   1.400       .  A
C1337      C1342   1.407       .  A
C1337      H1344   1.083       .  S
C1338      C1339   1.424       .  A
C1339      C1340   1.403       .  A
C1339      C1346   1.525       .  S
C1340      C1341   1.402       .  A
C1340      H1345   1.083       .  S
C1341      C1342   1.427       .  A
C1342      C1343   1.519       .  S
C1343      F1347   1.385       .  S
C1343      F1348   1.383       .  S
C1343      F1349   1.380       .  S
C1346      F1350   1.383       .  S
C1346      F1351   1.381       .  S
C1346      F1352   1.385       .  S
C1353      C1358   1.402       .  A
C1353      H1360   1.082       .  S
C1354      C1355   1.419       .  A
C1355      C1356   1.408       .  A
C1355      C1362   1.518       .  S
C1356      C1357   1.410       .  A
C1356      H1361   1.084       .  S
C1358      C1359   1.522       .  S
C1362      F1366   1.383       .  S
C1369      C1374   1.409   1_554  A
C1369      H1376   1.081       .  S
C1370      C1371   1.420       .  A
C1371      C1372   1.407       .  A
C1371      C1378   1.514       .  S
C1372      C1373   1.407       .  A
C1372      H1377   1.081       .  S
C1374      C1375   1.525   1_556  S
C1375      F1381   1.381   1_554  S
C1378      F1382   1.383       .  S
C1385      C1390   1.399       .  A
C1385      H1392   1.079       .  S
C1386      C1387   1.425       .  A
C1387      C1388   1.410       .  A
C1387      C1394   1.520       .  S
C1388      H1393   1.083       .  S
C1389      C1390   1.428   1_554  A
C1390      C1391   1.525       .  S
C1391      F1395   1.386       .  S
C1391      F1397   1.381       .  S
C1394      F1398   1.382       .  S
C1394      F1400   1.385       .  S
C1401      C1402   1.405       .  A
C1401      C1406   1.405       .  A
C1401      H1408   1.081       .  S
C1403      C1404   1.407       .  A
C1403      C1410   1.523       .  S
C1404      H1409   1.081       .  S
C1405      C1406   1.429       .  A
C1406      C1407   1.527       .  S
C1407      F1411   1.382       .  S
C1407      F1412   1.383       .  S
C1410      F2476   1.383   1_556  S
C1410      F2831   1.379       .  S
C1410      F1416   1.385       .  S
F1414      C2472   1.383       .  S
F1415      C2826   1.379       .  S
C1417      C1772   1.426   1_556  A
C1417      C1422   1.416       .  A
C1417      C1759   1.501       .  S
C1418      C1771   1.426       .  A
C1418      C1419   1.398       .  A
C1418      H1423   1.081       .  S
C1419      C1420   1.403       .  A
C1419      C1428   1.498       .  S
C1420      C1775   1.402       .  A
C1420      H1424   1.073       .  S
C1421      C1774   1.402       .  A
C1421      C1422   1.400   1_554  A
C1421      C1446   1.489   1_554  S
C1422      H1425   1.077       .  S
C1426      C1427   1.423       .  A
C1426      C1431   1.425       .  A
C1426      C1743   1.488       .  S
C1427      C1428   1.402       .  A
C1427      H1432   1.082       .  S
C1428      C1429   1.394       .  A
C1429      C1430   1.401       .  A
C1429      H1433   1.064       .  S
C1430      C1431   1.402       .  A
C1430      C1791   1.505       .  S
C1431      H1434   1.083       .  S
C1435      C1436   1.431       .  A
C1435      C1440   1.434       .  A
C1435      C1727   1.504       .  S
C1436      C1437   1.407       .  A
C1436      H1441   1.078       .  S
C1437      C1438   1.391   1_556  A
C1437      C1784   1.505       .  S
C1438      C1439   1.387   1_554  A
C1438      H1442   1.058       .  S
C1439      C1440   1.397       .  A
C1439      C1448   1.502       .  S
C1440      H1443   1.081       .  S
C1444      C1445   1.421       .  A
C1444      C1449   1.426   1_554  A
C1444      C1708   1.493       .  S
C1445      C1446   1.397   1_554  A
C1445      H1450   1.084       .  S
C1446      C1447   1.393       .  A
C1447      C1448   1.402       .  A
C1447      H1451   1.069       .  S
C1448      C1449   1.404       .  A
C1449      H1452   1.079   1_556  S
C1453      C1454   1.425       .  A
C1453      C1458   1.418       .  A
C1453      C1692   1.483       .  S
C1454      C1455   1.403       .  A
C1454      H1459   1.083       .  S
C1455      C1456   1.403       .  A
C1455      C1464   1.506       .  S
C1456      C1457   1.396       .  A
C1456      H1460   1.064       .  S
C1457      C1458   1.398       .  A
C1457      C1484   1.494       .  S
C1458      H1461   1.082       .  S
C1462      C1463   1.432       .  A
C1462      C1467   1.440       .  A
C1462      C1676   1.511       .  S
C1463      C1464   1.406       .  A
C1463      H1468   1.077       .  S
C1464      C1465   1.388       .  A
C1465      C1466   1.386       .  A
C1465      H1469   1.055       .  S
C1466      C1467   1.402       .  A
C1466      C1473   1.510       .  S
C1467      H1470   1.080       .  S
C1471      C1472   1.429       .  A
C1471      C1476   1.430       .  A
C1471      C1660   1.501       .  S
C1472      C1473   1.404       .  A
C1472      H1477   1.078       .  S
C1473      C1474   1.402       .  A
C1474      C1475   1.393       .  A
C1474      H1478   1.064       .  S
C1475      C1476   1.404       .  A
C1475      C1482   1.505       .  S
C1476      H1479   1.083       .  S
C1480      C1481   1.431       .  A
C1480      C1485   1.416       .  A
C1480      C1644   1.500       .  S
C1481      C1482   1.407       .  A
C1481      H1486   1.083       .  S
C1482      C1483   1.401       .  A
C1483      C1484   1.402       .  A
C1483      H1487   1.071       .  S
C1484      C1485   1.392       .  A
C1485      H1488   1.074       .  S
C1489      C1490   1.420       .  A
C1489      C1494   1.418       .  A
C1489      C1631   1.472       .  S
C1490      C1491   1.402       .  A
C1490      H1495   1.083       .  S
C1491      C1492   1.400       .  A
C1491      C1500   1.503       .  S
C1492      C1493   1.401       .  A
C1492      H1496   1.064       .  S
C1493      C1494   1.399       .  A
C1493      C1509   1.500       .  S
C1494      H1497   1.083       .  S
C1498      C1499   1.422       .  A
C1498      C1503   1.426       .  A
C1498      C1612   1.480       .  S
C1499      C1500   1.401       .  A
C1499      H1504   1.083       .  S
C1500      C1501   1.395       .  A
C1501      C1502   1.399       .  A
C1501      H1505   1.059       .  S
C1502      C1503   1.406       .  A
C1502      C1518   1.510       .  S
C1503      H1506   1.083       .  S
C1507      C1508   1.423       .  A
C1507      C1512   1.429       .  A
C1507      C1596   1.487       .  S
C1508      C1509   1.401       .  A
C1508      H1513   1.082       .  S
C1509      C1510   1.394       .  A
C1510      C1511   1.397       .  A
C1510      H1514   1.059       .  S
C1511      C1512   1.406       .  A
C1511      C1520   1.510       .  S
C1512      H1515   1.083       .  S
C1516      C1517   1.426       .  A
C1516      C1521   1.425       .  A
C1516      C1580   1.478       .  S
C1517      C1518   1.403       .  A
C1517      H1522   1.083       .  S
C1518      C1519   1.396       .  A
C1519      C1520   1.397       .  A
C1519      H1523   1.056       .  S
C1520      C1521   1.403       .  A
C1521      H1524   1.083       .  S
O1525      C1536   1.286       .  A
O1526      C1537   1.294       .  A
O1527      C1538   1.286       .  A
O1527     Eu1533   2.440       .  S
O1528      C1539   1.285       .  A
O1528     Eu1887   2.440       .  S
O1529      C1539   1.294       .  A
O1530      C1538   1.293       .  A
O1531      C1537   1.289       .  A
O1531     Eu1533   2.458       .  S
O1532      C1536   1.293       .  A
O1532     Eu2241   2.463   1_556  S
Eu1533     O1882   2.440   1_554  S
Eu1533     O2240   2.463   1_544  S
O1534     Eu1563   2.357       .  S
O1534     Eu1914   2.362       .  S
O1535     Eu2269   2.363   1_544  S
O1535     Eu1562   2.364       .  S
C1536      C1756   1.498       .  S
C1537      C1740   1.492       .  S
C1538      C1647   1.487       .  S
C1539      C1695   1.490       .  S
H1540      O1541   0.965       .  S
O1541     Eu1562   2.340       .  S
O1541     Eu1560   2.350       .  S
H1542      O1543   0.965       .  S
O1543     Eu2623   2.341   1_545  S
O1543     Eu1563   2.340       .  S
O1544      C1567   1.294       .  A
O1544     Eu1560   2.480   1_556  S
O1545      C1568   1.289       .  A
O1545     Eu1561   2.443       .  S
O1546      C1569   1.295       .  A
O1546     Eu1562   2.478       .  S
O1547      C1570   1.289       .  A
O1547     Eu1563   2.454       .  S
O1548      C1571   1.288       .  A
O1548     Eu2271   2.447       .  S
O1549      C1572   1.291       .  A
O1549     Eu2270   2.462       .  S
O1550      C1573   1.294       .  A
O1550     Eu1564   2.481   1_554  S
O1551      C1574   1.296       .  A
O1551     Eu1918   2.474       .  S
O1552      C1573   1.291       .  A
O1552     Eu1562   2.456       .  S
O1553      C1574   1.289       .  A
O1553     Eu1563   2.458       .  S
O1554      C1569   1.289       .  A
O1554     Eu1560   2.453       .  S
O1555      C1572   1.291       .  A
O1555     Eu1561   2.463   1_554  S
O1556      C1571   1.294       .  A
O1556     Eu1915   2.478       .  S
O1557      C1570   1.292       .  A
O1557     Eu1914   2.467       .  S
O1558      C1567   1.292       .  A
O1558     Eu1564   2.455       .  S
O1559      C1568   1.291       .  A
O1559     Eu2272   2.464       .  S
Eu1560     O1911   2.467   1_554  S
Eu1560     O1888   2.362   1_554  S
Eu1560     O1932   2.340   1_554  S
Eu1560     O1566   2.366       .  S
Eu1561     O1910   2.478       .  S
Eu1561     O2243   2.363   1_556  S
Eu1561     O2605   2.341       .  S
Eu1561     O2627   2.358       .  S
Eu1561     O2284   2.346   1_556  S
Eu1562     O2257   2.462   1_545  S
Eu1562     O1576   2.348       .  S
Eu1562     O1566   2.366       .  S
Eu1563     O2256   2.447   1_545  S
Eu1563     O1565   2.367       .  S
Eu1563     O1578   2.344       .  S
Eu1564     O1905   2.474       .  S
Eu1564     O2267   2.464   1_545  S
Eu1564     O1919   2.363       .  S
Eu1564     O1576   2.337   1_556  S
Eu1564     O1932   2.349       .  S
Eu1564     O1566   2.365   1_556  S
O1565     Eu2623   2.358   1_545  S
O1565     Eu1918   2.363       .  S
C1567      C1724   1.496       .  S
C1568      C1711   1.488   1_556  S
C1569      C1599   1.485       .  S
C1570      C1628   1.475       .  S
C1571      C1615   1.476       .  S
C1572      C1583   1.472       .  S
C1573      C1663   1.498       .  S
C1574      C1679   1.503       .  S
H1575      O1576   0.965       .  S
O1576     Eu2269   2.346   1_544  S
H1577      O1578   0.965       .  S
O1578     Eu1914   2.340       .  S
O1578     Eu1918   2.349       .  S
C1579      C1580   1.404       .  A
C1579      C1584   1.405       .  A
C1580      C1581   1.412       .  A
C1581      C1582   1.411       .  A
C1581      C1588   1.515       .  S
C1582      C1583   1.406       .  A
C1582      H1587   1.084       .  S
C1583      C1584   1.412       .  A
C1585      F1589   1.384       .  S
C1585      F1590   1.383       .  S
C1585      F1591   1.383       .  S
C1588      F1592   1.383       .  S
C1588      F1593   1.383       .  S
C1588      F1594   1.384       .  S
C1595      C1596   1.401       .  A
C1595      C1600   1.409       .  A
C1595      H1602   1.083       .  S
C1596      C1597   1.426       .  A
C1597      C1598   1.406       .  A
C1597      C1604   1.523       .  S
C1598      C1599   1.399       .  A
C1598      H1603   1.083       .  S
C1599      C1600   1.423       .  A
C1600      C1601   1.517       .  S
C1601      F1605   1.385       .  S
C1601      F1606   1.381       .  S
C1601      F1607   1.382       .  S
C1604      F1608   1.381       .  S
C1604      F1609   1.383       .  S
C1604      F1610   1.385       .  S
C1611      C1612   1.401       .  A
C1611      C1616   1.411       .  A
C1612      C1613   1.421       .  A
C1613      C1614   1.404       .  A
C1613      C1620   1.521       .  S
C1614      C1615   1.397       .  A
C1614      H1619   1.084       .  S
C1615      C1616   1.420       .  A
C1617      F1621   1.384       .  S
C1617      F1622   1.381       .  S
C1617      F1623   1.381       .  S
C1620      F1624   1.383       .  S
C1620      F1625   1.382       .  S
C1620      F1626   1.385       .  S
C1627      C1628   1.406       .  A
C1627      C1632   1.406       .  A
C1627      H1634   1.080       .  S
C1628      C1629   1.410       .  A
C1629      C1630   1.404       .  A
C1630      C1631   1.404       .  A
C1631      C1632   1.410       .  A
C1632      C1633   1.517       .  S
C1633      F1637   1.385       .  S
C1633      F1638   1.383       .  S
C1633      F1639   1.382       .  S
C1636      F1640   1.379       .  S
C1636      F1641   1.383       .  S
C1636      F1642   1.384       .  S
C1643      C1644   1.406       .  A
C1643      C1648   1.403       .  A
C1643      H1650   1.082       .  S
C1644      C1645   1.429       .  A
C1645      C1646   1.408       .  A
C1645      C1652   1.520       .  S
C1646      C1647   1.404       .  A
C1646      H1651   1.084       .  S
C1647      C1648   1.419       .  A
C1648      C1649   1.520       .  S
C1649      F1653   1.383       .  S
C1649      F1654   1.383   1_545  S
C1649      F1655   1.384   1_545  S
C1652      F1656   1.384       .  S
C1652      F1657   1.382       .  S
C1652      F1658   1.385       .  S
C1659      C1660   1.408       .  A
C1659      C1664   1.407       .  A
C1659      H1666   1.082       .  S
C1660      C1661   1.421       .  A
C1661      C1662   1.412       .  A
C1661      C1668   1.517   1_545  S
C1662      C1663   1.410       .  A
C1662      H1667   1.084       .  S
C1663      C1664   1.419       .  A
C1664      C1665   1.519       .  S
C1665      F1669   1.384       .  S
C1665      F1670   1.383       .  S
C1665      F1671   1.383       .  S
C1668      F1672   1.383   1_565  S
C1668      F1673   1.383       .  S
C1668      F1674   1.382       .  S
C1675      C1676   1.408       .  A
C1675      C1680   1.410       .  A
C1675      H1682   1.080       .  S
C1676      C1677   1.434       .  A
C1677      C1678   1.409       .  A
C1677      C1684   1.526       .  S
C1678      C1679   1.403       .  A
C1678      H1683   1.082       .  S
C1679      C1680   1.425       .  A
C1680      C1681   1.521       .  S
C1681      F1685   1.385       .  S
C1681      F1686   1.375       .  S
C1681      F1687   1.384       .  S
C1684      F1688   1.381       .  S
C1684      F1689   1.383       .  S
C1684      F1690   1.384       .  S
C1691      C1692   1.400       .  A
C1691      C1696   1.407       .  A
C1691      H1698   1.083       .  S
C1692      C1693   1.424       .  A
C1693      C1694   1.403       .  A
C1693      C1700   1.525       .  S
C1694      C1695   1.402       .  A
C1694      H1699   1.083       .  S
C1695      C1696   1.427       .  A
C1696      C1697   1.519       .  S
C1697      F1701   1.385   1_545  S
C1697      F1702   1.383       .  S
C1697      F1703   1.380   1_545  S
C1700      F1704   1.383       .  S
C1700      F1705   1.381       .  S
C1700      F1706   1.385       .  S
C1707      C2062   1.410       .  A
C1707      C1712   1.402       .  A
C1707      H1714   1.082       .  S
C1708      C2061   1.410   1_554  A
C1708      C1709   1.419       .  A
C1709      C1710   1.408       .  A
C1709      C1716   1.518       .  S
C1710      C1711   1.410       .  A
C1710      H1715   1.084       .  S
C1711      C2066   1.418   1_554  A
C1712      C2065   1.418       .  A
C1712      C1713   1.522       .  S
C1713      F2071   1.384       .  S
C1713      F2780   1.383       .  S
C1713      F2427   1.383       .  S
C1716      F1720   1.383       .  S
C1716      F2075   1.383       .  S
C1716      F2076   1.385       .  S
F1717      C2067   1.384       .  S
F1718      C2775   1.383       .  S
F1719      C2421   1.383       .  S
F1721      C2070   1.383       .  S
F1722      C2070   1.385       .  S
C1723      C2078   1.402       .  A
C1723      C1728   1.409       .  A
C1723      H1730   1.081       .  S
C1724      C2077   1.402   1_556  A
C1724      C1725   1.420       .  A
C1725      C1726   1.407       .  A
C1725      C1732   1.514       .  S
C1726      C1727   1.407       .  A
C1726      H1731   1.081       .  S
C1727      C2082   1.432       .  A
C1728      C2081   1.432       .  A
C1728      C1729   1.525       .  S
C1729      F2087   1.382       .  S
C1729      F2088   1.382       .  S
C1729      F1735   1.381       .  S
C1732      F1736   1.383       .  S
C1732      F2091   1.374       .  S
C1732      F2092   1.385       .  S
F1733      C2083   1.382       .  S
F1734      C2083   1.382       .  S
F1737      C2086   1.374       .  S
F1738      C2086   1.385       .  S
C1739      C2094   1.402       .  A
C1739      C1744   1.403       .  A
C1739      H1746   1.079       .  S
C1740      C2093   1.399   1_554  A
C1740      C1741   1.424       .  A
C1741      C1742   1.410       .  A
C1741      C1748   1.520       .  S
C1742      C2097   1.405       .  A
C1742      H1747   1.083       .  S
C1743      C2096   1.404       .  A
C1743      C1744   1.424       .  A
C1744      C1745   1.525       .  S
C1745      F1749   1.385       .  S
C1745      F2104   1.381       .  S
C1745      F1751   1.383       .  S
C1748      F1752   1.382       .  S
C1748      F2107   1.383       .  S
C1748      F1754   1.384       .  S
F1750      C2099   1.382   1_554  S
F1753      C2102   1.383       .  S
C1755      C1756   1.405   1_554  A
C1755      C1760   1.405       .  A
C1755      H1762   1.081       .  S
C1756      C2111   1.426       .  A
C1757      C2110   1.426       .  A
C1757      C1758   1.407       .  A
C1757      C1764   1.523       .  S
C1758      C2113   1.406       .  A
C1758      H1763   1.081       .  S
C1759      C2112   1.406       .  A
C1759      C1760   1.429   1_556  A
C1760      C1761   1.527       .  S
C1761      F1765   1.382       .  S
C1761      F1766   1.383       .  S
C1761      F2121   1.380   1_554  S
C1764      F1770   1.385       .  S
F1767      C2115   1.380       .  S
C1771      C1776   1.416       .  A
C1771      C2113   1.501       .  S
C1772      C1773   1.398       .  A
C1772      H1777   1.081       .  S
C1773      C1774   1.403       .  A
C1773      C1782   1.498       .  S
C1774      H1778   1.073       .  S
C1775      C1776   1.400       .  A
C1775      C1800   1.489       .  S
C1776      H1779   1.077       .  S
C1780      C1781   1.422       .  A
C1780      C1785   1.428       .  A
C1780      C2097   1.489       .  S
C1781      C1782   1.403       .  A
C1781      H1786   1.082       .  S
C1782      C1783   1.394   1_554  A
C1783      C1784   1.400       .  A
C1783      H1787   1.064       .  S
C1784      C1785   1.402   1_556  A
C1785      H1788   1.083       .  S
C1789      C1790   1.431       .  A
C1789      C1794   1.434       .  A
C1789      C2081   1.504       .  S
C1790      C1791   1.406       .  A
C1790      H1795   1.078       .  S
C1791      C1792   1.391       .  A
C1792      C1793   1.387       .  A
C1792      H1796   1.058       .  S
C1793      C1794   1.397       .  A
C1793      C1802   1.502       .  S
C1794      H1797   1.081       .  S
C1798      C1799   1.421       .  A
C1798      C1803   1.426       .  A
C1798      C2062   1.493       .  S
C1799      C1800   1.397       .  A
C1799      H1804   1.084       .  S
C1800      C1801   1.393       .  A
C1801      C1802   1.402       .  A
C1801      H1805   1.069       .  S
C1802      C1803   1.404       .  A
C1803      H1806   1.079       .  S
C1807      C1808   1.425       .  A
C1807      C1812   1.418       .  A
C1807      C2046   1.483       .  S
C1808      C1809   1.403       .  A
C1808      H1813   1.083       .  S
C1809      C1810   1.403       .  A
C1809      C1818   1.506       .  S
C1810      C1811   1.396       .  A
C1810      H1814   1.064       .  S
C1811      C1812   1.398       .  A
C1811      C1838   1.494       .  S
C1812      H1815   1.082       .  S
C1816      C1817   1.432       .  A
C1816      C1821   1.440       .  A
C1816      C2030   1.511       .  S
C1817      C1818   1.406       .  A
C1817      H1822   1.077       .  S
C1818      C1819   1.388       .  A
C1819      C1820   1.386       .  A
C1819      H1823   1.055       .  S
C1820      C1821   1.402       .  A
C1820      C1827   1.510       .  S
C1821      H1824   1.080       .  S
C1825      C1826   1.429       .  A
C1825      C1830   1.430       .  A
C1825      C2014   1.501       .  S
C1826      C1827   1.404       .  A
C1826      H1831   1.078       .  S
C1827      C1828   1.402       .  A
C1828      C1829   1.393       .  A
C1828      H1832   1.064       .  S
C1829      C1830   1.404       .  A
C1829      C1836   1.505       .  S
C1830      H1833   1.083       .  S
C1834      C1835   1.431       .  A
C1834      C1839   1.416       .  A
C1834      C1998   1.500       .  S
C1835      C1836   1.407       .  A
C1835      H1840   1.083       .  S
C1836      C1837   1.401       .  A
C1837      C1838   1.402       .  A
C1837      H1841   1.071       .  S
C1838      C1839   1.392       .  A
C1839      H1842   1.074       .  S
C1843      C1844   1.420       .  A
C1843      C1848   1.418       .  A
C1843      C1985   1.472       .  S
C1844      C1845   1.402       .  A
C1844      H1849   1.083       .  S
C1845      C1846   1.400       .  A
C1845      C1854   1.503       .  S
C1846      C1847   1.401       .  A
C1846      H1850   1.064       .  S
C1847      C1848   1.399       .  A
C1847      C1863   1.500       .  S
C1848      H1851   1.083       .  S
C1852      C1853   1.422       .  A
C1852      C1857   1.426       .  A
C1852      C1966   1.480       .  S
C1853      C1854   1.401       .  A
C1853      H1858   1.083       .  S
C1854      C1855   1.395       .  A
C1855      C1856   1.399       .  A
C1855      H1859   1.059       .  S
C1856      C1857   1.406       .  A
C1856      C1872   1.510       .  S
C1857      H1860   1.083       .  S
C1861      C1862   1.423       .  A
C1861      C1866   1.429       .  A
C1861      C1950   1.487       .  S
C1862      C1863   1.401       .  A
C1862      H1867   1.082       .  S
C1863      C1864   1.394       .  A
C1864      C1865   1.397       .  A
C1864      H1868   1.059       .  S
C1865      C1866   1.406       .  A
C1865      C1874   1.510       .  S
C1866      H1869   1.083       .  S
C1870      C1871   1.426       .  A
C1870      C1875   1.425       .  A
C1870      C1934   1.478       .  S
C1871      C1872   1.403       .  A
C1871      H1876   1.083       .  S
C1872      C1873   1.396       .  A
C1873      C1874   1.397       .  A
C1873      H1877   1.056       .  S
C1874      C1875   1.403       .  A
C1875      H1878   1.083       .  S
O1879      C1890   1.286       .  A
O1880      C1891   1.293       .  A
O1881      C1892   1.286       .  A
O1881     Eu1887   2.440       .  S
O1882      C1893   1.285       .  A
O1883      C1893   1.294       .  A
O1884      C1892   1.293       .  A
O1885      C1891   1.289       .  A
O1885     Eu1887   2.459       .  S
O1886      C1890   1.293       .  A
O1886     Eu2595   2.463       .  S
Eu1887     O2594   2.463   1_545  S
O1888     Eu1917   2.357       .  S
O1889     Eu2623   2.363   1_545  S
O1889     Eu1916   2.364       .  S
C1890      C2110   1.498       .  S
C1891      C2094   1.493       .  S
C1892      C2001   1.487       .  S
C1893      C2049   1.490       .  S
H1894      O1895   0.965       .  S
O1895     Eu1916   2.340       .  S
O1895     Eu1914   2.350       .  S
H1896      O1897   0.965       .  S
O1897     Eu2269   2.341   1_545  S
O1897     Eu1917   2.340       .  S
O1898      C1921   1.294       .  A
O1898     Eu1914   2.480       .  S
O1899      C1922   1.289       .  A
O1899     Eu1915   2.443       .  S
O1900      C1923   1.295       .  A
O1900     Eu1916   2.478       .  S
O1901      C1924   1.289       .  A
O1901     Eu1917   2.454       .  S
O1902      C1925   1.288       .  A
O1902     Eu2625   2.447       .  S
O1903      C1926   1.291       .  A
O1903     Eu2624   2.462       .  S
O1904      C1927   1.294       .  A
O1904     Eu1918   2.481       .  S
O1905      C1928   1.296       .  A
O1906      C1927   1.291       .  A
O1906     Eu1916   2.456       .  S
O1907      C1928   1.289       .  A
O1907     Eu1917   2.458       .  S
O1908      C1923   1.289       .  A
O1908     Eu1914   2.453       .  S
O1909      C1926   1.291       .  A
O1909     Eu1915   2.463       .  S
O1910      C1925   1.294       .  A
O1911      C1924   1.292       .  A
O1912      C1921   1.292       .  A
O1912     Eu1918   2.455       .  S
O1913      C1922   1.291       .  A
O1913     Eu2626   2.464       .  S
Eu1914     O1920   2.366       .  S
Eu1915     O2597   2.363       .  S
Eu1915     O2251   2.341       .  S
Eu1915     O2273   2.358       .  S
Eu1915     O2638   2.346       .  S
Eu1916     O2611   2.462   1_545  S
Eu1916     O1930   2.348       .  S
Eu1916     O1920   2.366       .  S
Eu1917     O2610   2.447   1_545  S
Eu1917     O1919   2.367       .  S
Eu1917     O1932   2.344       .  S
Eu1918     O2621   2.464   1_545  S
Eu1918     O1930   2.337       .  S
Eu1918     O1920   2.365       .  S
O1919     Eu2269   2.358   1_545  S
C1921      C2078   1.496       .  S
C1922      C2065   1.488       .  S
C1923      C1953   1.485       .  S
C1924      C1982   1.475       .  S
C1925      C1969   1.476       .  S
C1926      C1937   1.472       .  S
C1927      C2017   1.498       .  S
C1928      C2033   1.503       .  S
H1929      O1930   0.965       .  S
O1930     Eu2623   2.346   1_545  S
H1931      O1932   0.965       .  S
C1933      C1934   1.404       .  A
C1933      C1938   1.405       .  A
C1934      C1935   1.412       .  A
C1935      C1936   1.411       .  A
C1935      C1942   1.515       .  S
C1936      C1937   1.406       .  A
C1936      H1941   1.084       .  S
C1937      C1938   1.412       .  A
C1939      F1943   1.384       .  S
C1939      F1944   1.383       .  S
C1939      F1945   1.383       .  S
C1942      F1946   1.383       .  S
C1942      F1947   1.383       .  S
C1942      F1948   1.384       .  S
C1949      C1950   1.401       .  A
C1949      C1954   1.409       .  A
C1949      H1956   1.083       .  S
C1950      C1951   1.426       .  A
C1951      C1952   1.406       .  A
C1951      C1958   1.523       .  S
C1952      C1953   1.399       .  A
C1952      H1957   1.083       .  S
C1953      C1954   1.423       .  A
C1954      C1955   1.517       .  S
C1955      F1959   1.385       .  S
C1955      F1960   1.381       .  S
C1955      F1961   1.382       .  S
C1958      F1962   1.381       .  S
C1958      F1963   1.383       .  S
C1958      F1964   1.385       .  S
C1965      C1966   1.401       .  A
C1965      C1970   1.411       .  A
C1966      C1967   1.421       .  A
C1967      C1968   1.404       .  A
C1967      C1974   1.521       .  S
C1968      C1969   1.397       .  A
C1968      H1973   1.084       .  S
C1969      C1970   1.420       .  A
C1971      F1975   1.384       .  S
C1971      F1976   1.381       .  S
C1971      F1977   1.381       .  S
C1974      F1978   1.383       .  S
C1974      F1979   1.382       .  S
C1974      F1980   1.385       .  S
C1981      C1982   1.406       .  A
C1981      C1986   1.406       .  A
C1981      H1988   1.080       .  S
C1982      C1983   1.410       .  A
C1983      C1984   1.404       .  A
C1984      C1985   1.404       .  A
C1985      C1986   1.410       .  A
C1986      C1987   1.517       .  S
C1987      F1991   1.385       .  S
C1987      F1992   1.383       .  S
C1987      F1993   1.382       .  S
C1990      F1994   1.379       .  S
C1990      F1995   1.383       .  S
C1990      F1996   1.384       .  S
C1997      C1998   1.406       .  A
C1997      C2002   1.403       .  A
C1997      H2004   1.082       .  S
C1998      C1999   1.429       .  A
C1999      C2000   1.408       .  A
C1999      C2006   1.520       .  S
C2000      C2001   1.404       .  A
C2000      H2005   1.084       .  S
C2001      C2002   1.419       .  A
C2002      C2003   1.520       .  S
C2003      F2007   1.383       .  S
C2003      F2008   1.383   1_545  S
C2003      F2009   1.384   1_545  S
C2006      F2010   1.384       .  S
C2006      F2011   1.382       .  S
C2006      F2012   1.385       .  S
C2013      C2014   1.408       .  A
C2013      C2018   1.407       .  A
C2013      H2020   1.082       .  S
C2014      C2015   1.421       .  A
C2015      C2016   1.412       .  A
C2015      C2022   1.517   1_545  S
C2016      C2017   1.410       .  A
C2016      H2021   1.084       .  S
C2017      C2018   1.419       .  A
C2018      C2019   1.519       .  S
C2019      F2023   1.384       .  S
C2019      F2024   1.383       .  S
C2019      F2025   1.383       .  S
C2022      F2026   1.383   1_565  S
C2022      F2027   1.383       .  S
C2022      F2028   1.382       .  S
C2029      C2030   1.408       .  A
C2029      C2034   1.410       .  A
C2029      H2036   1.080       .  S
C2030      C2031   1.434       .  A
C2031      C2032   1.409       .  A
C2031      C2038   1.526       .  S
C2032      C2033   1.403       .  A
C2032      H2037   1.082       .  S
C2033      C2034   1.425       .  A
C2034      C2035   1.521       .  S
C2035      F2039   1.385       .  S
C2035      F2040   1.375       .  S
C2035      F2041   1.384       .  S
C2038      F2042   1.381       .  S
C2038      F2043   1.383       .  S
C2038      F2044   1.384       .  S
C2045      C2046   1.400       .  A
C2045      C2050   1.407       .  A
C2045      H2052   1.083       .  S
C2046      C2047   1.424       .  A
C2047      C2048   1.403       .  A
C2047      C2054   1.525       .  S
C2048      C2049   1.402       .  A
C2048      H2053   1.083       .  S
C2049      C2050   1.427       .  A
C2050      C2051   1.519       .  S
C2051      F2055   1.385   1_545  S
C2051      F2056   1.383       .  S
C2051      F2057   1.380   1_545  S
C2054      F2058   1.383       .  S
C2054      F2059   1.381       .  S
C2054      F2060   1.385       .  S
C2061      C2066   1.402       .  A
C2061      H2068   1.082       .  S
C2062      C2063   1.419       .  A
C2063      C2064   1.408       .  A
C2063      C2070   1.518       .  S
C2064      C2065   1.410       .  A
C2064      H2069   1.084       .  S
C2066      C2067   1.522       .  S
C2067      F2426   1.383       .  S
C2067      F2781   1.383       .  S
C2070      F2074   1.383       .  S
F2072      C2421   1.383       .  S
F2073      C2775   1.383       .  S
C2077      C2082   1.409   1_554  A
C2077      H2084   1.081       .  S
C2078      C2079   1.420       .  A
C2079      C2080   1.407       .  A
C2079      C2086   1.514       .  S
C2080      C2081   1.407       .  A
C2080      H2085   1.081       .  S
C2082      C2083   1.525   1_556  S
C2083      F2089   1.381   1_554  S
C2086      F2090   1.383       .  S
C2093      C2098   1.399       .  A
C2093      H2100   1.079       .  S
C2094      C2095   1.425       .  A
C2095      C2096   1.410       .  A
C2095      C2102   1.520       .  S
C2096      H2101   1.083       .  S
C2097      C2098   1.428   1_554  A
C2098      C2099   1.525       .  S
C2099      F2103   1.386       .  S
C2099      F2105   1.381       .  S
C2102      F2106   1.382       .  S
C2102      F2108   1.385       .  S
C2109      C2110   1.405       .  A
C2109      C2114   1.405       .  A
C2109      H2116   1.081       .  S
C2111      C2112   1.407       .  A
C2111      C2118   1.523       .  S
C2112      H2117   1.081       .  S
C2113      C2114   1.429       .  A
C2114      C2115   1.527       .  S
C2115      F2119   1.382       .  S
C2115      F2120   1.383       .  S
C2118      F2124   1.385       .  S
C2125      C2480   1.426   1_556  A
C2125      C2130   1.416       .  A
C2125      C2467   1.501       .  S
C2126      C2479   1.426       .  A
C2126      C2127   1.398       .  A
C2126      H2131   1.081       .  S
C2127      C2128   1.403       .  A
C2127      C2136   1.498       .  S
C2128      C2483   1.402       .  A
C2128      H2132   1.073       .  S
C2129      C2482   1.402       .  A
C2129      C2130   1.400   1_554  A
C2129      C2154   1.489   1_554  S
C2130      H2133   1.077       .  S
C2134      C2135   1.423       .  A
C2134      C2139   1.425       .  A
C2134      C2451   1.488       .  S
C2135      C2136   1.402       .  A
C2135      H2140   1.082       .  S
C2136      C2137   1.394       .  A
C2137      C2138   1.401       .  A
C2137      H2141   1.064       .  S
C2138      C2139   1.402       .  A
C2138      C2499   1.505       .  S
C2139      H2142   1.083       .  S
C2143      C2144   1.431       .  A
C2143      C2148   1.434       .  A
C2143      C2435   1.504       .  S
C2144      C2145   1.406       .  A
C2144      H2149   1.078       .  S
C2145      C2146   1.391   1_556  A
C2145      C2492   1.505       .  S
C2146      C2147   1.387   1_554  A
C2146      H2150   1.058       .  S
C2147      C2148   1.397       .  A
C2147      C2156   1.502       .  S
C2148      H2151   1.081       .  S
C2152      C2153   1.421       .  A
C2152      C2157   1.426   1_554  A
C2152      C2416   1.493       .  S
C2153      C2154   1.397   1_554  A
C2153      H2158   1.084       .  S
C2154      C2155   1.393       .  A
C2155      C2156   1.402       .  A
C2155      H2159   1.069       .  S
C2156      C2157   1.404       .  A
C2157      H2160   1.079   1_556  S
C2161      C2162   1.425       .  A
C2161      C2166   1.418       .  A
C2161      C2400   1.483       .  S
C2162      C2163   1.403       .  A
C2162      H2167   1.083       .  S
C2163      C2164   1.403       .  A
C2163      C2172   1.506       .  S
C2164      C2165   1.396       .  A
C2164      H2168   1.064       .  S
C2165      C2166   1.398       .  A
C2165      C2192   1.494       .  S
C2166      H2169   1.082       .  S
C2170      C2171   1.432       .  A
C2170      C2175   1.440       .  A
C2170      C2384   1.511       .  S
C2171      C2172   1.406       .  A
C2171      H2176   1.077       .  S
C2172      C2173   1.388       .  A
C2173      C2174   1.386       .  A
C2173      H2177   1.055       .  S
C2174      C2175   1.402       .  A
C2174      C2181   1.510       .  S
C2175      H2178   1.080       .  S
C2179      C2180   1.429       .  A
C2179      C2184   1.430       .  A
C2179      C2368   1.501       .  S
C2180      C2181   1.404       .  A
C2180      H2185   1.078       .  S
C2181      C2182   1.402       .  A
C2182      C2183   1.393       .  A
C2182      H2186   1.064       .  S
C2183      C2184   1.404       .  A
C2183      C2190   1.505       .  S
C2184      H2187   1.083       .  S
C2188      C2189   1.431       .  A
C2188      C2193   1.416       .  A
C2188      C2352   1.500       .  S
C2189      C2190   1.407       .  A
C2189      H2194   1.083       .  S
C2190      C2191   1.401       .  A
C2191      C2192   1.402       .  A
C2191      H2195   1.071       .  S
C2192      C2193   1.392       .  A
C2193      H2196   1.074       .  S
C2197      C2198   1.420       .  A
C2197      C2202   1.418       .  A
C2197      C2339   1.472       .  S
C2198      C2199   1.402       .  A
C2198      H2203   1.083       .  S
C2199      C2200   1.400       .  A
C2199      C2208   1.503       .  S
C2200      C2201   1.401       .  A
C2200      H2204   1.064       .  S
C2201      C2202   1.399       .  A
C2201      C2217   1.500       .  S
C2202      H2205   1.083       .  S
C2206      C2207   1.422       .  A
C2206      C2211   1.426       .  A
C2206      C2320   1.480       .  S
C2207      C2208   1.401       .  A
C2207      H2212   1.083       .  S
C2208      C2209   1.395       .  A
C2209      C2210   1.399       .  A
C2209      H2213   1.059       .  S
C2210      C2211   1.406       .  A
C2210      C2226   1.510       .  S
C2211      H2214   1.083       .  S
C2215      C2216   1.423       .  A
C2215      C2220   1.429       .  A
C2215      C2304   1.487       .  S
C2216      C2217   1.401       .  A
C2216      H2221   1.082       .  S
C2217      C2218   1.394       .  A
C2218      C2219   1.397       .  A
C2218      H2222   1.059       .  S
C2219      C2220   1.406       .  A
C2219      C2228   1.510       .  S
C2220      H2223   1.083       .  S
C2224      C2225   1.426       .  A
C2224      C2229   1.425       .  A
C2224      C2288   1.478       .  S
C2225      C2226   1.403       .  A
C2225      H2230   1.083       .  S
C2226      C2227   1.396       .  A
C2227      C2228   1.397       .  A
C2227      H2231   1.056       .  S
C2228      C2229   1.403       .  A
C2229      H2232   1.083       .  S
O2233      C2244   1.286       .  A
O2234      C2245   1.293       .  A
O2235      C2246   1.286       .  A
O2235     Eu2241   2.440       .  S
O2236      C2247   1.285       .  A
O2236     Eu2595   2.440       .  S
O2237      C2247   1.294       .  A
O2238      C2246   1.293       .  A
O2239      C2245   1.289       .  A
O2239     Eu2241   2.459       .  S
O2240      C2244   1.293       .  A
Eu2241     O2590   2.440   1_554  S
O2242     Eu2271   2.357       .  S
O2242     Eu2622   2.362       .  S
O2243     Eu2270   2.364       .  S
C2244      C2464   1.498       .  S
C2245      C2448   1.493       .  S
C2246      C2355   1.487       .  S
C2247      C2403   1.490       .  S
H2248      O2249   0.965       .  S
O2249     Eu2270   2.340       .  S
O2249     Eu2268   2.350       .  S
H2250      O2251   0.965       .  S
O2251     Eu2271   2.340       .  S
O2252      C2275   1.294       .  A
O2252     Eu2268   2.480   1_556  S
O2253      C2276   1.289       .  A
O2253     Eu2269   2.443       .  S
O2254      C2277   1.295       .  A
O2254     Eu2270   2.478       .  S
O2255      C2278   1.289       .  A
O2255     Eu2271   2.454       .  S
O2256      C2279   1.288       .  A
O2257      C2280   1.291       .  A
O2258      C2281   1.294       .  A
O2258     Eu2272   2.481   1_554  S
O2259      C2282   1.296       .  A
O2259     Eu2626   2.474       .  S
O2260      C2281   1.291       .  A
O2260     Eu2270   2.456       .  S
O2261      C2282   1.289       .  A
O2261     Eu2271   2.458       .  S
O2262      C2277   1.289       .  A
O2262     Eu2268   2.453       .  S
O2263      C2280   1.291       .  A
O2263     Eu2269   2.463   1_554  S
O2264      C2279   1.294       .  A
O2264     Eu2623   2.478       .  S
O2265      C2278   1.292       .  A
O2265     Eu2622   2.467       .  S
O2266      C2275   1.292       .  A
O2266     Eu2272   2.455       .  S
O2267      C2276   1.291       .  A
Eu2268     O2619   2.467   1_554  S
Eu2268     O2596   2.362   1_554  S
Eu2268     O2640   2.340   1_554  S
Eu2268     O2274   2.366       .  S
Eu2269     O2618   2.478       .  S
Eu2270     O2284   2.348       .  S
Eu2270     O2274   2.366       .  S
Eu2271     O2273   2.367       .  S
Eu2271     O2286   2.344       .  S
Eu2272     O2613   2.474       .  S
Eu2272     O2627   2.363       .  S
Eu2272     O2284   2.337   1_556  S
Eu2272     O2640   2.349       .  S
Eu2272     O2274   2.365   1_556  S
O2273     Eu2626   2.363       .  S
C2275      C2432   1.496       .  S
C2276      C2419   1.488   1_556  S
C2277      C2307   1.485       .  S
C2278      C2336   1.475       .  S
C2279      C2323   1.476       .  S
C2280      C2291   1.472       .  S
C2281      C2371   1.498       .  S
C2282      C2387   1.503       .  S
H2283      O2284   0.965       .  S
H2285      O2286   0.965       .  S
O2286     Eu2622   2.340       .  S
O2286     Eu2626   2.349       .  S
C2287      C2288   1.404       .  A
C2287      C2292   1.405       .  A
C2288      C2289   1.412       .  A
C2289      C2290   1.411       .  A
C2289      C2296   1.515       .  S
C2290      C2291   1.406       .  A
C2290      H2295   1.084       .  S
C2291      C2292   1.412       .  A
C2293      F2297   1.384       .  S
C2293      F2298   1.383       .  S
C2293      F2299   1.383       .  S
C2296      F2300   1.383       .  S
C2296      F2301   1.383       .  S
C2296      F2302   1.384       .  S
C2303      C2304   1.401       .  A
C2303      C2308   1.409       .  A
C2303      H2310   1.083       .  S
C2304      C2305   1.426       .  A
C2305      C2306   1.406       .  A
C2305      C2312   1.523       .  S
C2306      C2307   1.399       .  A
C2306      H2311   1.083       .  S
C2307      C2308   1.423       .  A
C2308      C2309   1.517       .  S
C2309      F2313   1.385       .  S
C2309      F2314   1.381       .  S
C2309      F2315   1.382       .  S
C2312      F2316   1.381       .  S
C2312      F2317   1.383       .  S
C2312      F2318   1.385       .  S
C2319      C2320   1.401       .  A
C2319      C2324   1.411       .  A
C2320      C2321   1.421       .  A
C2321      C2322   1.404       .  A
C2321      C2328   1.521       .  S
C2322      C2323   1.397       .  A
C2322      H2327   1.084       .  S
C2323      C2324   1.420       .  A
C2325      F2329   1.384       .  S
C2325      F2330   1.381       .  S
C2325      F2331   1.381       .  S
C2328      F2332   1.383       .  S
C2328      F2333   1.382       .  S
C2328      F2334   1.385       .  S
C2335      C2336   1.406       .  A
C2335      C2340   1.406       .  A
C2335      H2342   1.080       .  S
C2336      C2337   1.410       .  A
C2337      C2338   1.404       .  A
C2338      C2339   1.404       .  A
C2339      C2340   1.410       .  A
C2340      C2341   1.517       .  S
C2341      F2345   1.385       .  S
C2341      F2346   1.383       .  S
C2341      F2347   1.382       .  S
C2344      F2348   1.379       .  S
C2344      F2349   1.383       .  S
C2344      F2350   1.384       .  S
C2351      C2352   1.406       .  A
C2351      C2356   1.403       .  A
C2351      H2358   1.082       .  S
C2352      C2353   1.429       .  A
C2353      C2354   1.408       .  A
C2353      C2360   1.520       .  S
C2354      C2355   1.404       .  A
C2354      H2359   1.084       .  S
C2355      C2356   1.419       .  A
C2356      C2357   1.520       .  S
C2357      F2361   1.383       .  S
C2357      F2362   1.383       .  S
C2357      F2363   1.384       .  S
C2360      F2364   1.384       .  S
C2360      F2365   1.382       .  S
C2360      F2366   1.385       .  S
C2367      C2368   1.408       .  A
C2367      C2372   1.407       .  A
C2367      H2374   1.082       .  S
C2368      C2369   1.421       .  A
C2369      C2370   1.412       .  A
C2369      C2376   1.517       .  S
C2370      C2371   1.410       .  A
C2370      H2375   1.084       .  S
C2371      C2372   1.419       .  A
C2372      C2373   1.519       .  S
C2373      F2377   1.384       .  S
C2373      F2378   1.383       .  S
C2373      F2379   1.383       .  S
C2376      F2380   1.383       .  S
C2376      F2381   1.383       .  S
C2376      F2382   1.382       .  S
C2383      C2384   1.408       .  A
C2383      C2388   1.410       .  A
C2383      H2390   1.080       .  S
C2384      C2385   1.434       .  A
C2385      C2386   1.409       .  A
C2385      C2392   1.526       .  S
C2386      C2387   1.403       .  A
C2386      H2391   1.082       .  S
C2387      C2388   1.425       .  A
C2388      C2389   1.521       .  S
C2389      F2393   1.385       .  S
C2389      F2394   1.375       .  S
C2389      F2395   1.384       .  S
C2392      F2396   1.381       .  S
C2392      F2397   1.383       .  S
C2392      F2398   1.384       .  S
C2399      C2400   1.400       .  A
C2399      C2404   1.407       .  A
C2399      H2406   1.083       .  S
C2400      C2401   1.424       .  A
C2401      C2402   1.403       .  A
C2401      C2408   1.525       .  S
C2402      C2403   1.402       .  A
C2402      H2407   1.083       .  S
C2403      C2404   1.427       .  A
C2404      C2405   1.519       .  S
C2405      F2409   1.385       .  S
C2405      F2410   1.383       .  S
C2405      F2411   1.380       .  S
C2408      F2412   1.383       .  S
C2408      F2413   1.381       .  S
C2408      F2414   1.385       .  S
C2415      C2770   1.410       .  A
C2415      C2420   1.402       .  A
C2415      H2422   1.082       .  S
C2416      C2769   1.410   1_554  A
C2416      C2417   1.419       .  A
C2417      C2418   1.408       .  A
C2417      C2424   1.518       .  S
C2418      C2419   1.410       .  A
C2418      H2423   1.084       .  S
C2419      C2774   1.418   1_554  A
C2420      C2773   1.418       .  A
C2420      C2421   1.522       .  S
C2421      F2779   1.384       .  S
C2424      F2428   1.383       .  S
C2424      F2783   1.383       .  S
C2424      F2784   1.385       .  S
F2425      C2775   1.384       .  S
F2429      C2778   1.383       .  S
F2430      C2778   1.385       .  S
C2431      C2786   1.402       .  A
C2431      C2436   1.409       .  A
C2431      H2438   1.081       .  S
C2432      C2785   1.402   1_556  A
C2432      C2433   1.420       .  A
C2433      C2434   1.407       .  A
C2433      C2440   1.514       .  S
C2434      C2435   1.407       .  A
C2434      H2439   1.081       .  S
C2435      C2790   1.432       .  A
C2436      C2789   1.432       .  A
C2436      C2437   1.525       .  S
C2437      F2795   1.382       .  S
C2437      F2796   1.382       .  S
C2437      F2443   1.381       .  S
C2440      F2444   1.383       .  S
C2440      F2799   1.374       .  S
C2440      F2800   1.385       .  S
F2441      C2791   1.382       .  S
F2442      C2791   1.382       .  S
F2445      C2794   1.374       .  S
F2446      C2794   1.385       .  S
C2447      C2802   1.402       .  A
C2447      C2452   1.403       .  A
C2447      H2454   1.079       .  S
C2448      C2801   1.402   1_554  A
C2448      C2449   1.425       .  A
C2449      C2450   1.410       .  A
C2449      C2456   1.520       .  S
C2450      C2805   1.404       .  A
C2450      H2455   1.083       .  S
C2451      C2804   1.404       .  A
C2451      C2452   1.424       .  A
C2452      C2453   1.525       .  S
C2453      F2457   1.385       .  S
C2453      F2812   1.381       .  S
C2453      F2459   1.383       .  S
C2456      F2460   1.382       .  S
C2456      F2815   1.383       .  S
C2456      F2462   1.385       .  S
F2458      C2807   1.381       .  S
F2461      C2810   1.383       .  S
C2463      C2464   1.405   1_554  A
C2463      C2468   1.405       .  A
C2463      H2470   1.081       .  S
C2464      C2819   1.426       .  A
C2465      C2818   1.426       .  A
C2465      C2466   1.407       .  A
C2465      C2472   1.523       .  S
C2466      C2821   1.406       .  A
C2466      H2471   1.081       .  S
C2467      C2820   1.406       .  A
C2467      C2468   1.429   1_556  A
C2468      C2469   1.527       .  S
C2469      F2473   1.382       .  S
C2469      F2474   1.383       .  S
C2469      F2829   1.380   1_554  S
C2472      F2478   1.385       .  S
F2475      C2823   1.380       .  S
C2479      C2484   1.416       .  A
C2479      C2821   1.501       .  S
C2480      C2481   1.398       .  A
C2480      H2485   1.081       .  S
C2481      C2482   1.403       .  A
C2481      C2490   1.498       .  S
C2482      H2486   1.073       .  S
C2483      C2484   1.400       .  A
C2483      C2508   1.489       .  S
C2484      H2487   1.077       .  S
C2488      C2489   1.423       .  A
C2488      C2493   1.425       .  A
C2488      C2805   1.488       .  S
C2489      C2490   1.402       .  A
C2489      H2494   1.082       .  S
C2490      C2491   1.394   1_554  A
C2491      C2492   1.401       .  A
C2491      H2495   1.064       .  S
C2492      C2493   1.402   1_556  A
C2493      H2496   1.083       .  S
C2497      C2498   1.431       .  A
C2497      C2502   1.434       .  A
C2497      C2789   1.504       .  S
C2498      C2499   1.406       .  A
C2498      H2503   1.078       .  S
C2499      C2500   1.391       .  A
C2500      C2501   1.387       .  A
C2500      H2504   1.058       .  S
C2501      C2502   1.397       .  A
C2501      C2510   1.502       .  S
C2502      H2505   1.081       .  S
C2506      C2507   1.421       .  A
C2506      C2511   1.426       .  A
C2506      C2770   1.493       .  S
C2507      C2508   1.397       .  A
C2507      H2512   1.084       .  S
C2508      C2509   1.393       .  A
C2509      C2510   1.402       .  A
C2509      H2513   1.069       .  S
C2510      C2511   1.404       .  A
C2511      H2514   1.079       .  S
C2515      C2516   1.425       .  A
C2515      C2520   1.418       .  A
C2515      C2754   1.483       .  S
C2516      C2517   1.403       .  A
C2516      H2521   1.083       .  S
C2517      C2518   1.403       .  A
C2517      C2526   1.506       .  S
C2518      C2519   1.396       .  A
C2518      H2522   1.064       .  S
C2519      C2520   1.398       .  A
C2519      C2546   1.494       .  S
C2520      H2523   1.082       .  S
C2524      C2525   1.432       .  A
C2524      C2529   1.440       .  A
C2524      C2738   1.511       .  S
C2525      C2526   1.406       .  A
C2525      H2530   1.077       .  S
C2526      C2527   1.389       .  A
C2527      C2528   1.386       .  A
C2527      H2531   1.055       .  S
C2528      C2529   1.402       .  A
C2528      C2535   1.510       .  S
C2529      H2532   1.080       .  S
C2533      C2534   1.429       .  A
C2533      C2538   1.430       .  A
C2533      C2722   1.501       .  S
C2534      C2535   1.404       .  A
C2534      H2539   1.078       .  S
C2535      C2536   1.402       .  A
C2536      C2537   1.393       .  A
C2536      H2540   1.064       .  S
C2537      C2538   1.404       .  A
C2537      C2544   1.505       .  S
C2538      H2541   1.083       .  S
C2542      C2543   1.431       .  A
C2542      C2547   1.416       .  A
C2542      C2706   1.500       .  S
C2543      C2544   1.407       .  A
C2543      H2548   1.083       .  S
C2544      C2545   1.401       .  A
C2545      C2546   1.402       .  A
C2545      H2549   1.071       .  S
C2546      C2547   1.392       .  A
C2547      H2550   1.074       .  S
C2551      C2552   1.420       .  A
C2551      C2556   1.418       .  A
C2551      C2693   1.472       .  S
C2552      C2553   1.402       .  A
C2552      H2557   1.083       .  S
C2553      C2554   1.400       .  A
C2553      C2562   1.503       .  S
C2554      C2555   1.401       .  A
C2554      H2558   1.064       .  S
C2555      C2556   1.399       .  A
C2555      C2571   1.500       .  S
C2556      H2559   1.083       .  S
C2560      C2561   1.422       .  A
C2560      C2565   1.426       .  A
C2560      C2674   1.480       .  S
C2561      C2562   1.401       .  A
C2561      H2566   1.083       .  S
C2562      C2563   1.395       .  A
C2563      C2564   1.399       .  A
C2563      H2567   1.059       .  S
C2564      C2565   1.406       .  A
C2564      C2580   1.510       .  S
C2565      H2568   1.083       .  S
C2569      C2570   1.423       .  A
C2569      C2574   1.429       .  A
C2569      C2658   1.487       .  S
C2570      C2571   1.401       .  A
C2570      H2575   1.082       .  S
C2571      C2572   1.394       .  A
C2572      C2573   1.397       .  A
C2572      H2576   1.059       .  S
C2573      C2574   1.406       .  A
C2573      C2582   1.510       .  S
C2574      H2577   1.083       .  S
C2578      C2579   1.426       .  A
C2578      C2583   1.425       .  A
C2578      C2642   1.478       .  S
C2579      C2580   1.403       .  A
C2579      H2584   1.083       .  S
C2580      C2581   1.396       .  A
C2581      C2582   1.397       .  A
C2581      H2585   1.056       .  S
C2582      C2583   1.403       .  A
C2583      H2586   1.083       .  S
O2587      C2598   1.286       .  A
O2588      C2599   1.293       .  A
O2589      C2600   1.286       .  A
O2589     Eu2595   2.440       .  S
O2590      C2601   1.285       .  A
O2591      C2601   1.294       .  A
O2592      C2600   1.293       .  A
O2593      C2599   1.289       .  A
O2593     Eu2595   2.459       .  S
O2594      C2598   1.293       .  A
O2596     Eu2625   2.357       .  S
O2597     Eu2624   2.364       .  S
C2598      C2818   1.498       .  S
C2599      C2802   1.493       .  S
C2600      C2709   1.487       .  S
C2601      C2757   1.490       .  S
H2602      O2603   0.965       .  S
O2603     Eu2624   2.340       .  S
O2603     Eu2622   2.350       .  S
H2604      O2605   0.965       .  S
O2605     Eu2625   2.340       .  S
O2606      C2629   1.294       .  A
O2606     Eu2622   2.480       .  S
O2607      C2630   1.289       .  A
O2607     Eu2623   2.443       .  S
O2608      C2631   1.295       .  A
O2608     Eu2624   2.478       .  S
O2609      C2632   1.289       .  A
O2609     Eu2625   2.454       .  S
O2610      C2633   1.288       .  A
O2611      C2634   1.291       .  A
O2612      C2635   1.294       .  A
O2612     Eu2626   2.481       .  S
O2613      C2636   1.296       .  A
O2614      C2635   1.291       .  A
O2614     Eu2624   2.456       .  S
O2615      C2636   1.289       .  A
O2615     Eu2625   2.458       .  S
O2616      C2631   1.289       .  A
O2616     Eu2622   2.453       .  S
O2617      C2634   1.291       .  A
O2617     Eu2623   2.463       .  S
O2618      C2633   1.294       .  A
O2619      C2632   1.292       .  A
O2620      C2629   1.292       .  A
O2620     Eu2626   2.455       .  S
O2621      C2630   1.291       .  A
Eu2622     O2628   2.366       .  S
Eu2624     O2638   2.348       .  S
Eu2624     O2628   2.366       .  S
Eu2625     O2627   2.367       .  S
Eu2625     O2640   2.344       .  S
Eu2626     O2638   2.337       .  S
Eu2626     O2628   2.365       .  S
C2629      C2786   1.496       .  S
C2630      C2773   1.488       .  S
C2631      C2661   1.485       .  S
C2632      C2690   1.475       .  S
C2633      C2677   1.476       .  S
C2634      C2645   1.472       .  S
C2635      C2725   1.498       .  S
C2636      C2741   1.503       .  S
H2637      O2638   0.965       .  S
H2639      O2640   0.965       .  S
C2641      C2642   1.404       .  A
C2641      C2646   1.405       .  A
C2642      C2643   1.412       .  A
C2643      C2644   1.411       .  A
C2643      C2650   1.515       .  S
C2644      C2645   1.406       .  A
C2644      H2649   1.084       .  S
C2645      C2646   1.412       .  A
C2647      F2651   1.384       .  S
C2647      F2652   1.383       .  S
C2647      F2653   1.383       .  S
C2650      F2654   1.383       .  S
C2650      F2655   1.383       .  S
C2650      F2656   1.384       .  S
C2657      C2658   1.401       .  A
C2657      C2662   1.409       .  A
C2657      H2664   1.083       .  S
C2658      C2659   1.426       .  A
C2659      C2660   1.406       .  A
C2659      C2666   1.523       .  S
C2660      C2661   1.399       .  A
C2660      H2665   1.083       .  S
C2661      C2662   1.423       .  A
C2662      C2663   1.517       .  S
C2663      F2667   1.385       .  S
C2663      F2668   1.381       .  S
C2663      F2669   1.382       .  S
C2666      F2670   1.381       .  S
C2666      F2671   1.383       .  S
C2666      F2672   1.385       .  S
C2673      C2674   1.401       .  A
C2673      C2678   1.411       .  A
C2674      C2675   1.421       .  A
C2675      C2676   1.404       .  A
C2675      C2682   1.521       .  S
C2676      C2677   1.397       .  A
C2676      H2681   1.084       .  S
C2677      C2678   1.420       .  A
C2679      F2683   1.384       .  S
C2679      F2684   1.381       .  S
C2679      F2685   1.381       .  S
C2682      F2686   1.383       .  S
C2682      F2687   1.382       .  S
C2682      F2688   1.385       .  S
C2689      C2690   1.406       .  A
C2689      C2694   1.406       .  A
C2689      H2696   1.080       .  S
C2690      C2691   1.410       .  A
C2691      C2692   1.404       .  A
C2692      C2693   1.404       .  A
C2693      C2694   1.410       .  A
C2694      C2695   1.517       .  S
C2695      F2699   1.385       .  S
C2695      F2700   1.383       .  S
C2695      F2701   1.382       .  S
C2698      F2702   1.379       .  S
C2698      F2703   1.383       .  S
C2698      F2704   1.384       .  S
C2705      C2706   1.406       .  A
C2705      C2710   1.403       .  A
C2705      H2712   1.082       .  S
C2706      C2707   1.429       .  A
C2707      C2708   1.408       .  A
C2707      C2714   1.520       .  S
C2708      C2709   1.404       .  A
C2708      H2713   1.084       .  S
C2709      C2710   1.419       .  A
C2710      C2711   1.520       .  S
C2711      F2715   1.383       .  S
C2711      F2716   1.383       .  S
C2711      F2717   1.384       .  S
C2714      F2718   1.384       .  S
C2714      F2719   1.382       .  S
C2714      F2720   1.385       .  S
C2721      C2722   1.408       .  A
C2721      C2726   1.407       .  A
C2721      H2728   1.082       .  S
C2722      C2723   1.421       .  A
C2723      C2724   1.412       .  A
C2723      C2730   1.517       .  S
C2724      C2725   1.410       .  A
C2724      H2729   1.084       .  S
C2725      C2726   1.419       .  A
C2726      C2727   1.519       .  S
C2727      F2731   1.384       .  S
C2727      F2732   1.383       .  S
C2727      F2733   1.383       .  S
C2730      F2734   1.383       .  S
C2730      F2735   1.383       .  S
C2730      F2736   1.382       .  S
C2737      C2738   1.408       .  A
C2737      C2742   1.410       .  A
C2737      H2744   1.080       .  S
C2738      C2739   1.434       .  A
C2739      C2740   1.409       .  A
C2739      C2746   1.526       .  S
C2740      C2741   1.403       .  A
C2740      H2745   1.082       .  S
C2741      C2742   1.425       .  A
C2742      C2743   1.521       .  S
C2743      F2747   1.385       .  S
C2743      F2748   1.375       .  S
C2743      F2749   1.384       .  S
C2746      F2750   1.381       .  S
C2746      F2751   1.383       .  S
C2746      F2752   1.384       .  S
C2753      C2754   1.400       .  A
C2753      C2758   1.407       .  A
C2753      H2760   1.083       .  S
C2754      C2755   1.424       .  A
C2755      C2756   1.403       .  A
C2755      C2762   1.525       .  S
C2756      C2757   1.402       .  A
C2756      H2761   1.083       .  S
C2757      C2758   1.427       .  A
C2758      C2759   1.519       .  S
C2759      F2763   1.385       .  S
C2759      F2764   1.383       .  S
C2759      F2765   1.380       .  S
C2762      F2766   1.383       .  S
C2762      F2767   1.381       .  S
C2762      F2768   1.385       .  S
C2769      C2774   1.402       .  A
C2769      H2776   1.082       .  S
C2770      C2771   1.419       .  A
C2771      C2772   1.408       .  A
C2771      C2778   1.518       .  S
C2772      C2773   1.410       .  A
C2772      H2777   1.084       .  S
C2774      C2775   1.522       .  S
C2778      F2782   1.383       .  S
C2785      C2790   1.409   1_554  A
C2785      H2792   1.081       .  S
C2786      C2787   1.420       .  A
C2787      C2788   1.407       .  A
C2787      C2794   1.514       .  S
C2788      C2789   1.407       .  A
C2788      H2793   1.081       .  S
C2790      C2791   1.525   1_556  S
C2791      F2797   1.381   1_554  S
C2794      F2798   1.383       .  S
C2801      C2806   1.403       .  A
C2801      H2808   1.079       .  S
C2802      C2803   1.425       .  A
C2803      C2804   1.410       .  A
C2803      C2810   1.520       .  S
C2804      H2809   1.083       .  S
C2805      C2806   1.424   1_554  A
C2806      C2807   1.525       .  S
C2807      F2811   1.385       .  S
C2807      F2813   1.383       .  S
C2810      F2814   1.382       .  S
C2810      F2816   1.385       .  S
C2817      C2818   1.405       .  A
C2817      C2822   1.405       .  A
C2817      H2824   1.081       .  S
C2819      C2820   1.407       .  A
C2819      C2826   1.523       .  S
C2820      H2825   1.081       .  S
C2821      C2822   1.429       .  A
C2822      C2823   1.527       .  S
C2823      F2827   1.382       .  S
C2823      F2828   1.383       .  S
C2826      F2832   1.385       .  S
