geometry optimzed in LAMMPS
_audit_creation_date              2020-12-01 
_audit_creation_method            'lammps2cif' 
_symmetry_space_group_name_H-M    'P1' 
_symmetry_Int_Tables_number       1 
_symmetry_cell_setting            triclinic 
loop_ 
_symmetry_equiv_pos_as_xyz 
  x,y,z 
_cell_length_a                    29.54697653 
_cell_length_b                    29.50604850171824 
_cell_length_c                    29.50449460872882 
_cell_angle_alpha                 90.36704992237959 
_cell_angle_beta                  89.55690465180224 
_cell_angle_gamma                 89.955493951485 
loop_ 
_atom_site_label 
_atom_site_type_symbol 
_atom_site_fract_x 
_atom_site_fract_y 
_atom_site_fract_z 
_atom_site_charge 
Fe1        Fe  0.68747430  0.75758677  0.69011171     1.65800
Fe2        Fe  0.76332047  0.67222993  0.68813924     1.73200
Fe3        Fe  0.68238976  0.67651181  0.76873760     1.54400
O4          O  0.66570540  0.73907436  0.79606324    -0.81800
O5          O  0.72917425  0.61197618  0.68271915    -0.80100
O6          O  0.69452306  0.79158669  0.75048639    -0.84300
O7          O  0.62093472  0.74145398  0.70595191    -0.79200
O8          O  0.74169607  0.67916560  0.80311631    -0.81000
O9          O  0.74295593  0.68720384  0.62280497    -0.83700
C10         C  0.60072985  0.70578963  0.71893916     0.97100
C11         C  0.67652131  0.77978625  0.78769010     1.04500
O12         O  0.71127518  0.70212568  0.71560579    -1.12700
O13         O  0.80141054  0.73033379  0.69159690    -0.75100
O14         O  0.75050336  0.78157428  0.67053106    -0.78600
O15         O  0.62160902  0.67287542  0.73658772    -0.79300
C16         C  0.79103140  0.76962483  0.67808041     0.96000
O17         O  0.67890020  0.72671473  0.62872171    -0.77300
O18         O  0.79011621  0.65401183  0.75031339    -0.82400
C19         C  0.70907588  0.59056997  0.71406605     0.98600
C20         C  0.78026297  0.66450269  0.79112629     1.04500
O21         O  0.69494329  0.61025696  0.74972133    -0.78100
C22         C  0.70782753  0.70472656  0.60548484     1.02800
Fe23       Fe  0.76196705  0.31036461  0.68523828     1.65800
Fe24       Fe  0.67926147  0.23178841  0.68382114     1.73200
Fe25       Fe  0.68263265  0.31061886  0.76782421     1.54400
O26         O  0.74353902  0.30507602  0.80109056    -0.81800
O27         O  0.61416029  0.25465486  0.69801761    -0.80100
O28         O  0.79103092  0.32765182  0.74699839    -0.84300
O29         O  0.73161416  0.37229610  0.68093455    -0.79200
O30         O  0.66398892  0.24860439  0.79455614    -0.81000
O31         O  0.67490497  0.26354851  0.62257732    -0.83700
C32         C  0.71272501  0.39496613  0.71231239     0.97100
C33         C  0.78207262  0.31917552  0.78828791     1.04500
O34         O  0.70783046  0.28411413  0.71240529    -1.12700
O35         O  0.74103721  0.20190515  0.66620305    -0.75100
O36         O  0.79517279  0.24978572  0.68796869    -0.78600
O37         O  0.69762591  0.37646066  0.74824323    -0.79300
C38         C  0.78227384  0.21105523  0.67463279     0.96000
O39         O  0.74168345  0.29737320  0.61930727    -0.77300
O40         O  0.68071071  0.19578308  0.74265265    -0.82400
C41         C  0.59662228  0.28940177  0.71697558     0.98600
C42         C  0.66889954  0.20754129  0.78232359     1.04500
O43         O  0.61981606  0.31786410  0.73928653    -0.78100
C44         C  0.70586689  0.28310772  0.60038044     1.02800
Fe45       Fe  0.23612701  0.31701724  0.68000331     1.65800
Fe46       Fe  0.31754616  0.23722828  0.67731042     1.73200
Fe47       Fe  0.31705270  0.31644543  0.75996137     1.54400
O48         O  0.30222567  0.38226638  0.74073267    -0.81800
O49         O  0.31391110  0.20122923  0.73642946    -0.80100
O50         O  0.26710859  0.37858618  0.67438283    -0.84300
O51         O  0.20875707  0.33554702  0.74251674    -0.79200
O52         O  0.37913928  0.32293949  0.72928730    -0.81000
O53         O  0.25548910  0.20946338  0.65908177    -0.83700
C54         C  0.21884025  0.32722410  0.78341568     0.97100
C55         C  0.28637864  0.40093995  0.70547322     1.04500
O56         O  0.29025482  0.29019725  0.70586038    -1.12700
O57         O  0.32323691  0.27001342  0.61656565    -0.75100
O58         O  0.25585198  0.30325816  0.61368101    -0.78600
O59         O  0.25709141  0.31189660  0.79485977    -0.79300
C60         C  0.29239701  0.29012185  0.59483263     0.96000
O61         O  0.20185461  0.25667976  0.68412861    -0.77300
O62         O  0.38323110  0.25738965  0.69185066    -0.82400
C63         C  0.32786003  0.21288410  0.77530481     0.98600
C64         C  0.40167926  0.29252197  0.70863266     1.04500
O65         O  0.33534246  0.25395411  0.78625530    -0.78100
C66         C  0.21433912  0.21856920  0.66831586     1.02800
Fe67       Fe  0.24192102  0.68016334  0.68384791     1.65800
Fe68       Fe  0.32330441  0.75984665  0.68528187     1.73200
Fe69       Fe  0.31970395  0.68041597  0.76659072     1.54400
O70         O  0.25878577  0.68660317  0.79938507    -0.81800
O71         O  0.38789477  0.73932745  0.70247196    -0.80100
O72         O  0.21178144  0.66314945  0.74551258    -0.84300
O73         O  0.27258839  0.61812329  0.67916789    -0.79200
O74         O  0.33811439  0.74246951  0.79385284    -0.81000
O75         O  0.33120496  0.72794704  0.62386262    -0.83700
C76         C  0.29098998  0.59591212  0.71073114     0.97100
C77         C  0.22028873  0.67299810  0.78662348     1.04500
O78         O  0.29506071  0.70671557  0.71180297    -1.12700
O79         O  0.26261484  0.78792237  0.66474973    -0.75100
O80         O  0.20815611  0.74067633  0.68697805    -0.78600
O81         O  0.30482645  0.61464520  0.74691357    -0.79300
C82         C  0.22128870  0.77879944  0.67235939     0.96000
O83         O  0.26423270  0.69411232  0.61839615    -0.77300
O84         O  0.31692946  0.79543333  0.74483851    -0.82400
C85         C  0.40570262  0.70394085  0.71908650     0.98600
C86         C  0.33089473  0.78350175  0.78343704     1.04500
O87         O  0.38233043  0.67306889  0.73747725    -0.78100
C88         C  0.30014379  0.71000233  0.60048397     1.02800
Fe89       Fe  0.23845709  0.68909980  0.32036071     1.65800
Fe90       Fe  0.31896135  0.76985964  0.32216261     1.73200
Fe91       Fe  0.32106857  0.68883518  0.24090072     1.54400
O92         O  0.30679503  0.62311421  0.26148424    -0.81800
O93         O  0.31746789  0.80439113  0.26223670    -0.80100
O94         O  0.26950112  0.62784389  0.32717227    -0.84300
O95         O  0.21233716  0.67011500  0.25812074    -0.79200
O96         O  0.38236135  0.68374258  0.27288897    -0.81000
O97         O  0.25652758  0.79787561  0.33775316    -0.83700
C98         C  0.22290245  0.67777567  0.21711100     0.97100
C99         C  0.29004648  0.60509155  0.29691945     1.04500
O100        O  0.29287752  0.71596475  0.29438456    -1.12700
O101        O  0.32263427  0.73913130  0.38398949    -0.75100
O102        O  0.25641228  0.70367778  0.38662968    -0.78600
O103        O  0.26158289  0.69217769  0.20516005    -0.79300
C104        C  0.29201177  0.71820534  0.40561246     0.96000
O105        O  0.20413907  0.74880241  0.31474642    -0.77300
O106        O  0.38481608  0.74937860  0.31022168    -0.82400
C107        C  0.33137961  0.79211045  0.22335948     0.98600
C108        C  0.40379888  0.71383125  0.29491319     1.04500
O109        O  0.33912866  0.75087719  0.21309686    -0.78100
C110        C  0.21597609  0.78793933  0.32774229     1.02800
Fe111      Fe  0.68347367  0.68639238  0.24738814     1.65800
Fe112      Fe  0.76343855  0.68617380  0.32793307     1.73200
Fe113      Fe  0.68306385  0.76731527  0.32821722     1.54400
O114        O  0.68774753  0.80184377  0.26854276    -0.81800
O115        O  0.74344353  0.70178669  0.39361794    -0.80100
O116        O  0.66613115  0.74846884  0.21952050    -0.84300
O117        O  0.62178487  0.68099723  0.27839181    -0.79200
O118        O  0.74556698  0.79484101  0.34602208    -0.81000
O119        O  0.73163833  0.62479289  0.33455403    -0.83700
C120        C  0.59878005  0.71190486  0.29747981     0.97100
C121        C  0.67457389  0.78953635  0.22964344     1.04500
O122        O  0.71000817  0.71334830  0.30110287    -1.12700
O123        O  0.79103722  0.66607570  0.26620295    -0.75100
O124        O  0.74369643  0.68953537  0.21289833    -0.78600
O125        O  0.61693311  0.74750368  0.31382067    -0.79300
C126        C  0.78163426  0.67392605  0.22509755     0.96000
O127        O  0.69713725  0.62095629  0.26787472    -0.77300
O128        O  0.79850659  0.74608163  0.32248655    -0.82400
C129        C  0.70713668  0.71651487  0.41179553     0.98600
C130        C  0.78655374  0.78508503  0.33640145     1.04500
O131        O  0.67657302  0.73603180  0.38936737    -0.78100
C132        C  0.71166547  0.60253043  0.30369875     1.02800
Fe133      Fe  0.32281248  0.32699129  0.23458717     1.65800
Fe134      Fe  0.24299852  0.32669250  0.31690999     1.73200
Fe135      Fe  0.32319337  0.24579995  0.31439236     1.54400
O136        O  0.31789217  0.21184134  0.25420821    -0.81800
O137        O  0.26405853  0.31198697  0.38221776    -0.80100
O138        O  0.34018040  0.26492896  0.20566512    -0.84300
O139        O  0.38456644  0.33254270  0.26467457    -0.79200
O140        O  0.26128479  0.21782320  0.33338277    -0.81000
O141        O  0.27422557  0.38818670  0.32271425    -0.83700
C142        C  0.40711518  0.30167396  0.28366477     0.97100
C143        C  0.33126471  0.22393089  0.21529070     1.04500
O144        O  0.29631500  0.29985921  0.28861517    -1.12700
O145        O  0.21438953  0.34459895  0.25540591    -0.75100
O146        O  0.26262095  0.32318896  0.20098361    -0.78600
O147        O  0.38876585  0.26585222  0.29895775    -0.79300
C148        C  0.22380221  0.33623862  0.21403664     0.96000
O149        O  0.30926958  0.39276376  0.25586256    -0.77300
O150        O  0.20816233  0.26693009  0.31296652    -0.82400
C151        C  0.29960623  0.29552878  0.39982184     0.98600
C152        C  0.22018281  0.22790610  0.32579298     1.04500
O153        O  0.33012954  0.27637959  0.37627274    -0.78100
C154        C  0.29440874  0.41073128  0.29227770     1.02800
Fe155      Fe  0.76618222  0.32337997  0.32123414     1.65800
Fe156      Fe  0.68656799  0.32509424  0.24035097     1.73200
Fe157      Fe  0.68534613  0.24345645  0.31953159     1.54400
O158        O  0.74706050  0.21598197  0.33803499    -0.81800
O159        O  0.62429962  0.33043994  0.27071794    -0.80100
O160        O  0.80064074  0.26366611  0.31450989    -0.84300
O161        O  0.74600027  0.30658903  0.38623074    -0.79200
O162        O  0.69048588  0.20937553  0.25883531    -0.81000
O163        O  0.70072701  0.39058798  0.26285368    -0.83700
C164        C  0.70979400  0.29256501  0.40473315     0.97100
C165        C  0.78820387  0.22570298  0.32996260     1.04500
O166        O  0.71260311  0.29732403  0.29362772    -1.12700
O167        O  0.74708578  0.32128330  0.20645900    -0.75100
O168        O  0.79444375  0.34400118  0.26030412    -0.78600
O169        O  0.67850081  0.27420782  0.38185065    -0.79300
C170        C  0.78539764  0.33545837  0.21915872     0.96000
O171        O  0.73475141  0.38441348  0.32959664    -0.77300
O172        O  0.66909648  0.26319983  0.21082337    -0.82400
C173        C  0.60172643  0.29940372  0.28992208     0.98600
C174        C  0.67720686  0.22191435  0.22010887     1.04500
O175        O  0.62006363  0.26355067  0.30466819    -0.78100
C176        C  0.71597823  0.40790014  0.29933642     1.02800
N177        N  0.93283640  0.00797128  0.36915395    -0.36800
N178        N  0.00407623  0.07692376  0.36516779    -0.57300
N179        N  0.07167460  0.00852441  0.36001300    -0.36800
N180        N  0.00104274  0.93945769  0.36260500    -0.57300
C181        C  0.90899361  0.04505581  0.35732388     0.26800
C182        C  0.90727495  0.97136579  0.35865061     0.26800
C183        C  0.09589911  0.04517530  0.34723646     0.26800
C184        C  0.09397676  0.97173797  0.34428242     0.26800
C185        C  0.96773772  0.10340391  0.37305742     0.35400
C186        C  0.04075619  0.10356084  0.37062825     0.35400
C187        C  0.96518595  0.91271853  0.37192666     0.35400
C188        C  0.03804189  0.91313325  0.36647310     0.35400
C189        C  0.86734616  0.03194240  0.34019175    -0.22000
C190        C  0.86624959  0.98536423  0.34111179    -0.22000
C191        C  0.13422413  0.03154752  0.32341907    -0.22000
C192        C  0.13299890  0.98500201  0.32151893    -0.22000
C193        C  0.98130047  0.14704615  0.38421888    -0.23100
C194        C  0.02777008  0.14707869  0.38289235    -0.23100
C195        C  0.97942384  0.86927193  0.38222157    -0.23100
C196        C  0.02578263  0.86954279  0.37883992    -0.23100
C197        C  0.92305467  0.09043299  0.36327958    -0.18400
C198        C  0.91993331  0.92573547  0.36521428    -0.18400
C199        C  0.08187021  0.92657424  0.35339176    -0.18400
C200        C  0.08493851  0.09039071  0.35825099    -0.18400
H201        H  0.84051115  0.05366926  0.32818689     0.14500
H202        H  0.83855999  0.96422863  0.32982789     0.14500
H203        H  0.16041583  0.05288415  0.30914719     0.14500
H204        H  0.15823914  0.96334366  0.30572665     0.14500
H205        H  0.95990279  0.17620942  0.39066851     0.12700
H206        H  0.04939262  0.17621071  0.38814179     0.12700
H207        H  0.95850603  0.84013926  0.38977400     0.12700
H208        H  0.04780240  0.84059670  0.38325731     0.12700
H209        H  0.96307951  0.00791389  0.38698286     0.26000
H210        H  0.04449625  0.00820922  0.38267209     0.26000
N211        N  0.07100905  0.99665052  0.64040918    -0.36800
N212        N  0.00360631  0.92550833  0.64259895    -0.57300
N213        N  0.93187265  0.99159042  0.64010690    -0.36800
N214        N  0.99928146  0.06282941  0.63951808    -0.57300
C215        C  0.09613266  0.96098438  0.65376006     0.26800
C216        C  0.09387629  0.03453416  0.65206542     0.26800
C217        C  0.90862709  0.95425948  0.65273803     0.26800
C218        C  0.90619289  0.02790938  0.65130163     0.26800
C219        C  0.04113450  0.90041607  0.63555238     0.35400
C220        C  0.96822664  0.89758893  0.63567837     0.35400
C221        C  0.03495899  0.09029329  0.63176652     0.35400
C222        C  0.96188201  0.08768964  0.63171404     0.35400
C223        C  0.13579277  0.97626142  0.67348913    -0.22000
C224        C  0.13437954  0.02284217  0.67239288    -0.22000
C225        C  0.86723133  0.96689756  0.67135015    -0.22000
C226        C  0.86571352  0.01350820  0.67051501    -0.22000
C227        C  0.02964073  0.85642816  0.62357461    -0.23100
C228        C  0.98322737  0.85462982  0.62367488    -0.23100
C229        C  0.02027142  0.13271217  0.61840039    -0.23100
C230        C  0.97379185  0.13105773  0.61834322    -0.23100
C231        C  0.08499054  0.91511274  0.64646396    -0.18400
C232        C  0.07985161  0.07920810  0.64291885    -0.18400
C233        C  0.91760445  0.07348661  0.64250896    -0.18400
C234        C  0.92309602  0.90914949  0.64572105    -0.18400
H235        H  0.16295877  0.95597068  0.68711634     0.14500
H236        H  0.16024323  0.04548776  0.68503949     0.14500
H237        H  0.84079846  0.94484380  0.68398101     0.14500
H238        H  0.83784255  0.03437603  0.68237191     0.14500
H239        H  0.05232015  0.82822841  0.61723335     0.12700
H240        H  0.96287077  0.82482645  0.61723720     0.12700
H241        H  0.04084527  0.16216615  0.61117415     0.12700
H242        H  0.95130362  0.15898617  0.61096809     0.12700
H243        H  0.04224999  0.99511576  0.62032908     0.26000
H244        H  0.96142746  0.99211404  0.62074130     0.26000
N245        N  0.36504998  0.00124597  0.93081068    -0.36800
N246        N  0.36744388  0.07334915  0.99708240    -0.57300
N247        N  0.36599603  0.00497035  0.06769741    -0.36800
N248        N  0.36792909  0.93280102  0.00110938    -0.57300
C249        C  0.37323218  0.03706937  0.90375311     0.26800
C250        C  0.37280190  0.96356443  0.90587738     0.26800
C251        C  0.37416271  0.04273225  0.09232728     0.26800
C252        C  0.37490227  0.96909842  0.09441196     0.26800
C253        C  0.35691706  0.09764678  0.96000595     0.35400
C254        C  0.35681360  0.09962571  0.03318643     0.35400
C255        C  0.35684425  0.90648689  0.96532851     0.35400
C256        C  0.35852589  0.90830092  0.03848294     0.35400
C257        C  0.38685001  0.02203832  0.86117136    -0.22000
C258        C  0.38647829  0.97546655  0.86247816    -0.22000
C259        C  0.38876909  0.03080436  0.13520695    -0.22000
C260        C  0.38924800  0.98419259  0.13651665    -0.22000
C261        C  0.34054709  0.13996139  0.97251955    -0.23100
C262        C  0.34042848  0.14121045  0.01902700    -0.23100
C263        C  0.34146542  0.86463917  0.97990722    -0.23100
C264        C  0.34252987  0.86578794  0.02640518    -0.23100
C265        C  0.36330963  0.08244952  0.91502610    -0.18400
C266        C  0.36204067  0.91926267  0.91966443    -0.18400
C267        C  0.36547951  0.92352441  0.08330002    -0.18400
C268        C  0.36377197  0.08726011  0.07869068    -0.18400
H269        H  0.39454894  0.04249191  0.83178110     0.14500
H270        H  0.39376898  0.95295016  0.83424677     0.14500
H271        H  0.39684770  0.05335057  0.16307304     0.14500
H272        H  0.39777436  0.96374456  0.16556737     0.14500
H273        H  0.32969006  0.16698734  0.95047233     0.12700
H274        H  0.32948885  0.16945721  0.03998532     0.12700
H275        H  0.33044682  0.83636232  0.95922060     0.12700
H276        H  0.33239676  0.83859081  0.04872350     0.12700
H277        H  0.34803966  0.00226465  0.96170724     0.26000
H278        H  0.34868845  0.00388406  0.03724375     0.26000
N279        N  0.00217702  0.36935233  0.93161216    -0.36800
N280        N  0.07111148  0.37270259  0.00099127    -0.57300
N281        N  0.00276627  0.37383720  0.07093267    -0.36800
N282        N  0.93376934  0.36886549  0.00160088    -0.57300
C283        C  0.03958475  0.35849775  0.90725650     0.26800
C284        C  0.96605552  0.35448438  0.90784725     0.26800
C285        C  0.03945921  0.36103437  0.09473346     0.26800
C286        C  0.96604407  0.36175316  0.09543254     0.26800
C287        C  0.09727820  0.38004832  0.96416686     0.35400
C288        C  0.09754146  0.38011345  0.03735038     0.35400
C289        C  0.90686489  0.37244564  0.96503936     0.35400
C290        C  0.90745578  0.37775819  0.03812794     0.35400
C291        C  0.02710152  0.33746873  0.86706143    -0.22000
C292        C  0.98065228  0.33477536  0.86752811    -0.22000
C293        C  0.02590129  0.34096599  0.13498800    -0.22000
C294        C  0.97942251  0.34171055  0.13558103    -0.22000
C295        C  0.14042466  0.39294279  0.97711599    -0.23100
C296        C  0.14058099  0.39299634  0.02368636    -0.23100
C297        C  0.86330401  0.38418364  0.97828029    -0.23100
C298        C  0.86370657  0.38771538  0.02475195    -0.23100
C299        C  0.08456995  0.36845623  0.91971455    -0.18400
C300        C  0.92023551  0.36035841  0.92063553    -0.18400
C301        C  0.92084931  0.36998103  0.08311481    -0.18400
C302        C  0.08474682  0.36935259  0.08203798    -0.18400
H303        H  0.04914215  0.32530220  0.84014861     0.14500
H304        H  0.95997581  0.32026458  0.84102725     0.14500
H305        H  0.04726603  0.32763920  0.16140352     0.14500
H306        H  0.95795338  0.32885711  0.16246141     0.14500
H307        H  0.16920747  0.39970975  0.95528097     0.12700
H308        H  0.16943902  0.39993967  0.04500947     0.12700
H309        H  0.83408706  0.38841090  0.95680756     0.12700
H310        H  0.83475638  0.39484208  0.04635499     0.12700
H311        H  0.00131947  0.38962971  0.96057119     0.26000
H312        H  0.00261400  0.39378677  0.04195861     0.26000
N313        N  0.63637736  0.99548477  0.93708826    -0.36800
N314        N  0.64128369  0.92892108  0.00758124    -0.57300
N315        N  0.64356196  0.00264758  0.07355159    -0.36800
N316        N  0.63432586  0.06920353  0.00280267    -0.57300
C317        C  0.62905593  0.95722458  0.91299100     0.26800
C318        C  0.62502752  0.03054091  0.91040646     0.26800
C319        C  0.63721768  0.96672950  0.10104790     0.26800
C320        C  0.63490033  0.04039240  0.09837697     0.26800
C321        C  0.65097135  0.90197608  0.97166938     0.35400
C322        C  0.65296258  0.90546157  0.04474450     0.35400
C323        C  0.64206075  0.09281941  0.96452661     0.35400
C324        C  0.64574953  0.09686528  0.03748298     0.35400
C325        C  0.61227443  0.96799266  0.87064109    -0.22000
C326        C  0.60969013  0.01448963  0.86902053    -0.22000
C327        C  0.62431597  0.98178283  0.14386320    -0.22000
C328        C  0.62292188  0.02836720  0.14218121    -0.22000
C329        C  0.66794702  0.86075303  0.98602509    -0.23100
C330        C  0.66908180  0.86290525  0.03251747    -0.23100
C331        C  0.65732183  0.13604806  0.97491196    -0.23100
C332        C  0.65980075  0.13856261  0.02126347    -0.23100
C333        C  0.64292745  0.91371089  0.92626284    -0.18400
C334        C  0.63423395  0.07624392  0.92038512    -0.18400
C335        C  0.64215447  0.08525877  0.08362362    -0.18400
C336        C  0.64699955  0.92120598  0.08959866    -0.18400
H337        H  0.60446222  0.94485983  0.84318013     0.14500
H338        H  0.59952473  0.03430100  0.84006669     0.14500
H339        H  0.61775137  0.96136842  0.17354371     0.14500
H340        H  0.61505829  0.05088720  0.17026036     0.14500
H341        H  0.67826485  0.83215754  0.96521799     0.12700
H342        H  0.68052553  0.83627722  0.05475216     0.12700
H343        H  0.66601279  0.16286500  0.95155471     0.12700
H344        H  0.67070779  0.16770084  0.04077151     0.12700
H345        H  0.65531736  0.99786522  0.96640135     0.26000
H346        H  0.65923392  0.00173657  0.04203002     0.26000
N347        N  0.99992138  0.63924600  0.93585438    -0.36800
N348        N  0.93175953  0.64178242  0.00687544    -0.57300
N349        N  0.00130200  0.64483514  0.07500389    -0.36800
N350        N  0.06926788  0.64410779  0.00379153    -0.57300
C351        C  0.96260332  0.64920559  0.91179459     0.26800
C352        C  0.03604508  0.65098230  0.91015699     0.26800
C353        C  0.96469778  0.65731212  0.09983161     0.26800
C354        C  0.03826130  0.65815969  0.09820897     0.26800
C355        C  0.90495467  0.63309469  0.97111373     0.35400
C356        C  0.90568002  0.63659821  0.04417471     0.35400
C357        C  0.09550583  0.63659085  0.96691432     0.35400
C358        C  0.09622121  0.63878104  0.04001241     0.35400
C359        C  0.97509841  0.66677469  0.87001827    -0.22000
C360        C  0.02157526  0.66786005  0.86898103    -0.22000
C361        C  0.97850967  0.67817877  0.13963477    -0.22000
C362        C  0.02507260  0.67866791  0.13863099    -0.22000
C363        C  0.86165025  0.62203439  0.98570604    -0.23100
C364        C  0.86208966  0.62436126  0.03215689    -0.23100
C365        C  0.13925693  0.62599529  0.97967594    -0.23100
C366        C  0.13972715  0.62741114  0.02616330    -0.23100
C367        C  0.91768585  0.64059807  0.92569776    -0.18400
C368        C  0.08168876  0.64472512  0.92218120    -0.18400
C369        C  0.08349590  0.65031269  0.08465691    -0.18400
C370        C  0.91930456  0.64853299  0.08825464    -0.18400
H371        H  0.95304867  0.67749066  0.84298138     0.14500
H372        H  0.04232473  0.67953668  0.84101646     0.14500
H373        H  0.95726339  0.69158490  0.16660895     0.14500
H374        H  0.04672789  0.69249610  0.16470168     0.14500
H375        H  0.83244617  0.61466180  0.96500498     0.12700
H376        H  0.83329922  0.61921629  0.05444168     0.12700
H377        H  0.16810732  0.61950815  0.95774609     0.12700
H378        H  0.16908050  0.62238822  0.04727104     0.12700
H379        H  0.00068230  0.62105559  0.96591199     0.26000
H380        H  0.00120043  0.62424939  0.04625367     0.26000
C381        C  0.62899396  0.18910217  0.15993755    -0.20500
C382        C  0.66926860  0.18707927  0.18488465    -0.07000
C383        C  0.70046515  0.15160691  0.17625367     0.13800
C384        C  0.69052197  0.11912343  0.14293848    -0.20500
C385        C  0.65011177  0.12089612  0.11844152    -0.07000
C386        C  0.61875150  0.15607621  0.12713115     0.13800
C387        C  0.57411828  0.15812025  0.10279837    -0.23900
H388        H  0.60496196  0.21608977  0.16692475     0.15100
H389        H  0.71441731  0.09204531  0.13581313     0.15100
C390        C  0.74484698  0.14849954  0.20095292    -0.23800
H391        H  0.55300461  0.18696552  0.11494932     0.05400
H392        H  0.55491810  0.12634091  0.10869406     0.08600
H393        H  0.57973862  0.16242145  0.06588373     0.08600
H394        H  0.73874688  0.14236003  0.23754337     0.08600
H395        H  0.76414152  0.18045124  0.19665368     0.08600
H396        H  0.76614251  0.12021543  0.18781362     0.05300
C397        C  0.84384451  0.38489980  0.18557319    -0.20500
C398        C  0.82043729  0.34353262  0.18469465    -0.07000
C399        C  0.83064241  0.31091732  0.15090516     0.13800
C400        C  0.86281293  0.32128621  0.11761313    -0.20500
C401        C  0.88538118  0.36299590  0.11783702    -0.07000
C402        C  0.87631833  0.39512708  0.15240583     0.13800
C403        C  0.90000660  0.44029197  0.15511185    -0.23900
H404        H  0.83622530  0.40967166  0.21187699     0.15100
H405        H  0.87116852  0.29643146  0.09163323     0.15100
C406        C  0.80947417  0.26442234  0.15109470    -0.23800
H407        H  0.91877741  0.44272547  0.18749798     0.05400
H408        H  0.87457985  0.46799683  0.15404689     0.08600
H409        H  0.92437886  0.44563530  0.12690759     0.08600
H410        H  0.77247074  0.26689627  0.14559632     0.08600
H411        H  0.81599989  0.24782739  0.18409073     0.08600
H412        H  0.82373342  0.24236922  0.12386952     0.05300
C413        C  0.85909568  0.13803814  0.38941473    -0.20500
C414        C  0.88978093  0.12659258  0.35489008    -0.07000
C415        C  0.88787336  0.14842363  0.31253148     0.13800
C416        C  0.85442790  0.18109059  0.30538427    -0.20500
C417        C  0.82290001  0.19176221  0.33950768    -0.07000
C418        C  0.82559183  0.17069029  0.38231728     0.13800
C419        C  0.79430805  0.18356823  0.42095326    -0.23900
H420        H  0.86140750  0.12121861  0.42188076     0.15100
H421        H  0.85230808  0.19780119  0.27283357     0.15100
C422        C  0.92054378  0.13663252  0.27476976    -0.23800
H423        H  0.80293569  0.16532389  0.45255922     0.05400
H424        H  0.75885027  0.17494720  0.41236968     0.08600
H425        H  0.79691123  0.22051057  0.42792076     0.08600
H426        H  0.91762262  0.10008040  0.26612602     0.08600
H427        H  0.95571049  0.14402951  0.28548013     0.08600
H428        H  0.91369190  0.15645567  0.24368235     0.05300
C429        C  0.47824193  0.28488752  0.32370119    -0.20500
C430        C  0.45669280  0.30653170  0.28753594    -0.07000
C431        C  0.48319671  0.32909946  0.25443913     0.13800
C432        C  0.53040513  0.32769709  0.25760300    -0.20500
C433        C  0.55197992  0.30391502  0.29239314    -0.07000
C434        C  0.52547943  0.28309088  0.32658410     0.13800
C435        C  0.54631259  0.25916326  0.36639074    -0.23900
H436        H  0.45791462  0.26831687  0.34946213     0.15100
H437        H  0.55065638  0.34369185  0.23142418     0.15100
C438        C  0.46254648  0.35274388  0.21435243    -0.23800
H439        H  0.52029840  0.24848410  0.39150964     0.05400
H440        H  0.57027631  0.28219140  0.38394406     0.08600
H441        H  0.56422946  0.22807516  0.35483832     0.08600
H442        H  0.44163344  0.38183393  0.22614012     0.08600
H443        H  0.44141460  0.32856243  0.19477834     0.08600
H444        H  0.48874564  0.36634797  0.19092386     0.05300
C445        C  0.14819453  0.32329826  0.11119275    -0.20500
C446        C  0.12069347  0.36179629  0.11594592    -0.07000
C447        C  0.12680201  0.39146411  0.15305209     0.13800
C448        C  0.16046288  0.38183630  0.18473669    -0.20500
C449        C  0.18847439  0.34362664  0.17982467    -0.07000
C450        C  0.18216561  0.31377774  0.14262990     0.13800
C451        C  0.20981948  0.27111253  0.13665366    -0.23900
H452        H  0.14274544  0.30049325  0.08279430     0.15100
H453        H  0.16547815  0.40472806  0.21314351     0.15100
C454        C  0.09850187  0.43367053  0.15875078    -0.23800
H455        H  0.19806507  0.25047967  0.10740788     0.05400
H456        H  0.20694761  0.24997815  0.16752611     0.08600
H457        H  0.24584765  0.27968195  0.13027950     0.08600
H458        H  0.06233173  0.42461696  0.16321404     0.08600
H459        H  0.10235370  0.45536574  0.12836370     0.08600
H460        H  0.10884875  0.45379032  0.18888040     0.05300
C461        C  0.31824367  0.11903144  0.14165543    -0.20500
C462        C  0.35708183  0.12214545  0.11431152    -0.07000
C463        C  0.38728624  0.15873179  0.12009289     0.13800
C464        C  0.37713718  0.19208793  0.15251075    -0.20500
C465        C  0.33852891  0.18881375  0.18033544    -0.07000
C466        C  0.30866078  0.15171229  0.17494799     0.13800
C467        C  0.26600475  0.14695743  0.20298701    -0.23900
H468        H  0.29522835  0.09085933  0.13665344     0.15100
H469        H  0.40032359  0.22021720  0.15699177     0.15100
C470        C  0.43072431  0.16314566  0.09332752    -0.23800
H471        H  0.24534749  0.11756387  0.19180406     0.05400
H472        H  0.24495471  0.17792944  0.19980988     0.08600
H473        H  0.27451823  0.14148475  0.23909549     0.08600
H474        H  0.42982996  0.19471091  0.07307657     0.08600
H475        H  0.43687640  0.13422781  0.06993076     0.08600
H476        H  0.45973570  0.16487827  0.11698201     0.05300
C477        C  0.11583862  0.15381188  0.31293724    -0.20500
C478        C  0.11965344  0.12595970  0.35098850    -0.07000
C479        C  0.15634147  0.13165205  0.38076627     0.13800
C480        C  0.18891729  0.16490660  0.37136710    -0.20500
C481        C  0.18504981  0.19313950  0.33341097    -0.07000
C482        C  0.14786681  0.18762947  0.30386253     0.13800
C483        C  0.14232159  0.21618201  0.26203088    -0.23900
H484        H  0.08756280  0.14889680  0.29022790     0.15100
H485        H  0.21714077  0.16945098  0.39421843     0.15100
C486        C  0.16057073  0.10327672  0.42280144    -0.23800
H487        H  0.13637354  0.25210540  0.27170372     0.05400
H488        H  0.11298122  0.20502342  0.24147607     0.08600
H489        H  0.17313474  0.21357053  0.24041184     0.08600
H490        H  0.16390675  0.06695182  0.41339326     0.08600
H491        H  0.13003572  0.10791498  0.44452244     0.08600
H492        H  0.19068083  0.11295074  0.44298654     0.05300
C493        C  0.74515256  0.53005329  0.32719081    -0.20500
C494        C  0.70852483  0.55283960  0.30773314    -0.07000
C495        C  0.67241968  0.52752008  0.28904336     0.13800
C496        C  0.67504587  0.48010435  0.28857160    -0.20500
C497        C  0.71281647  0.45741101  0.30589661    -0.07000
C498        C  0.74818778  0.48274121  0.32600561     0.13800
C499        C  0.79065631  0.46071309  0.34360063    -0.23900
H500        H  0.77291736  0.54949779  0.34119060     0.15100
H501        H  0.64783994  0.46058283  0.27361728     0.15100
C502        C  0.63093186  0.54992324  0.26976122    -0.23800
H503        H  0.81574601  0.48616332  0.35529367     0.05400
H504        H  0.80693600  0.44022585  0.31627819     0.08600
H505        H  0.78241056  0.43881430  0.37295174     0.08600
H506        H  0.63980941  0.56882818  0.23857246     0.08600
H507        H  0.61582499  0.57338845  0.29527849     0.08600
H508        H  0.60470861  0.52468385  0.26033800     0.05300
C509        C  0.82305357  0.69931730  0.15740711    -0.20500
C510        C  0.81653468  0.66584354  0.19024710    -0.07000
C511        C  0.84324000  0.62598784  0.18898740     0.13800
C512        C  0.87680251  0.62143304  0.15540184    -0.20500
C513        C  0.88381301  0.65548039  0.12321548    -0.07000
C514        C  0.85657254  0.69485367  0.12406137     0.13800
C515        C  0.86220696  0.73302826  0.09078210    -0.23900
H516        H  0.80242675  0.72975284  0.15835171     0.15100
H517        H  0.89749392  0.59108484  0.15391023     0.15100
C518        C  0.83540250  0.58754108  0.22159449    -0.23800
H519        H  0.86915045  0.76501352  0.10950072     0.05400
H520        H  0.83050040  0.73712855  0.07125706     0.08600
H521        H  0.89038460  0.72749580  0.06639385     0.08600
H522        H  0.79970641  0.57597289  0.21955227     0.08600
H523        H  0.84280131  0.59866176  0.25673895     0.08600
H524        H  0.85759347  0.55805509  0.21373373     0.05300
C525        C  0.62701165  0.82403986  0.17082676    -0.20500
C526        C  0.66773238  0.82430867  0.19494009    -0.07000
C527        C  0.70099866  0.85732204  0.18524127     0.13800
C528        C  0.69291860  0.88885257  0.15097800    -0.20500
C529        C  0.65232502  0.88834882  0.12677385    -0.07000
C530        C  0.61859421  0.85610894  0.13719106     0.13800
C531        C  0.57333731  0.85501069  0.11398750    -0.23900
H532        H  0.60130810  0.79901726  0.17875245     0.15100
H533        H  0.71855640  0.91374685  0.14253598     0.15100
C534        C  0.74573671  0.85820418  0.20942358    -0.23800
H535        H  0.54605535  0.85930816  0.13973667     0.05400
H536        H  0.56934727  0.88218427  0.08856891     0.08600
H537        H  0.56889884  0.82185872  0.09658648     0.08600
H538        H  0.76280371  0.82493105  0.20509824     0.08600
H539        H  0.74044747  0.86545089  0.24603275     0.08600
H540        H  0.76860305  0.88476122  0.19576099     0.05300
C541        C  0.81983455  0.84648173  0.38307803    -0.20500
C542        C  0.82152203  0.82032096  0.34312864    -0.07000
C543        C  0.85606951  0.82865912  0.31070738     0.13800
C544        C  0.88729289  0.86356232  0.31874570    -0.20500
C545        C  0.88555626  0.88951138  0.35872360    -0.07000
C546        C  0.85192349  0.88048280  0.39159755     0.13800
C547        C  0.85060406  0.90592486  0.43601275    -0.23900
H548        H  0.79376151  0.83964195  0.40816624     0.15100
H549        H  0.91345397  0.87065501  0.29381816     0.15100
C550        C  0.85968253  0.80178191  0.26718291    -0.23800
H551        H  0.82276805  0.89383755  0.45837299     0.05400
H552        H  0.84533477  0.94260359  0.42990694     0.08600
H553        H  0.88306245  0.90105223  0.45408472     0.08600
H554        H  0.82744879  0.80390024  0.24835001     0.08600
H555        H  0.86733605  0.76578779  0.27463359     0.08600
H556        H  0.88714366  0.81469180  0.24481802     0.05300
C557        C  0.33205138  0.53344642  0.28471464    -0.20500
C558        C  0.29341233  0.55553003  0.30193378    -0.07000
C559        C  0.25736714  0.52954068  0.32006991     0.13800
C560        C  0.25986339  0.48229704  0.31776780    -0.20500
C561        C  0.29729167  0.46024496  0.29816137    -0.07000
C562        C  0.33467207  0.48602782  0.28293237     0.13800
C563        C  0.37759078  0.46400249  0.26566846    -0.23900
H564        H  0.36006950  0.55346139  0.27190933     0.15100
H565        H  0.23143616  0.46239208  0.32982433     0.15100
C566        C  0.21519654  0.55085417  0.34007376    -0.23800
H567        H  0.40437713  0.48944628  0.25857443     0.05400
H568        H  0.37113552  0.44533609  0.23363799     0.08600
H569        H  0.39075413  0.44026660  0.29149965     0.08600
H570        H  0.19906341  0.57328459  0.31489186     0.08600
H571        H  0.22389180  0.57070625  0.37086300     0.08600
H572        H  0.18981963  0.52502580  0.35028209     0.05300
C573        C  0.47714662  0.68677112  0.26504557    -0.20500
C574        C  0.45331364  0.70885197  0.30001860    -0.07000
C575        C  0.47760609  0.72822889  0.33658077     0.13800
C576        C  0.52509586  0.72706021  0.33566410    -0.20500
C577        C  0.54892787  0.70717238  0.29930409    -0.07000
C578        C  0.52446729  0.68605663  0.26379317     0.13800
C579        C  0.54747797  0.66508366  0.22286890    -0.23900
H580        H  0.45862531  0.67189461  0.23708779     0.15100
H581        H  0.54380095  0.74262158  0.36312881     0.15100
C582        C  0.45408401  0.74980901  0.37686493    -0.23800
H583        H  0.52271845  0.65288834  0.19741963     0.05400
H584        H  0.56792648  0.63537813  0.23317360     0.08600
H585        H  0.56943547  0.69057195  0.20603629     0.08600
H586        H  0.42946466  0.72561129  0.39181832     0.08600
H587        H  0.43636685  0.78121031  0.36657839     0.08600
H588        H  0.47843979  0.75946896  0.40373533     0.05300
C589        C  0.13270865  0.62187554  0.14551670    -0.20500
C590        C  0.11979033  0.65803428  0.11800521    -0.07000
C591        C  0.14191374  0.70032239  0.12191380     0.13800
C592        C  0.17625206  0.70554542  0.15397572    -0.20500
C593        C  0.18849653  0.66968881  0.18228512    -0.07000
C594        C  0.16693839  0.62716362  0.17769176     0.13800
C595        C  0.18065781  0.58708392  0.20585628    -0.23900
H596        H  0.11590625  0.58943314  0.14168344     0.15100
H597        H  0.19289767  0.73810930  0.15758710     0.15100
C598        C  0.12981646  0.74058272  0.09320692    -0.23800
H599        H  0.16202755  0.55589450  0.19600536     0.05400
H600        H  0.17311717  0.59405431  0.24206197     0.08600
H601        H  0.21743051  0.58041762  0.20139977     0.08600
H602        H  0.10209976  0.73348537  0.06909142     0.08600
H603        H  0.15996094  0.75131081  0.07331606     0.08600
H604        H  0.11885171  0.76907167  0.11548873     0.05300
C605        C  0.32003980  0.89506499  0.14769084    -0.20500
C606        C  0.35917179  0.89091145  0.12082302    -0.07000
C607        C  0.38992703  0.85526089  0.12884139     0.13800
C608        C  0.37953955  0.82325818  0.16218201    -0.20500
C609        C  0.34014743  0.82707420  0.18888051    -0.07000
C610        C  0.31032573  0.86392934  0.18206330     0.13800
C611        C  0.26749829  0.86986215  0.20963393    -0.23900
H612        H  0.29675342  0.92267731  0.14130007     0.15100
H613        H  0.40290182  0.79556025  0.16799329     0.15100
C614        C  0.43414193  0.85045674  0.10346006    -0.23800
H615        H  0.24710150  0.89904680  0.19775356     0.05400
H616        H  0.27583963  0.87635438  0.24569838     0.08600
H617        H  0.24633414  0.83892466  0.20686087     0.08600
H618        H  0.44019764  0.87823823  0.07905534     0.08600
H619        H  0.43464353  0.81780073  0.08457250     0.08600
H620        H  0.46243035  0.85074850  0.12799808     0.05300
C621        C  0.18344357  0.85142683  0.37137270    -0.20500
C622        C  0.18126144  0.82315208  0.33303435    -0.07000
C623        C  0.14647469  0.82929319  0.30092815     0.13800
C624        C  0.11457021  0.86364961  0.30831359    -0.20500
C625        C  0.11659971  0.89128850  0.34697396    -0.07000
C626        C  0.15117208  0.88527722  0.37894139     0.13800
C627        C  0.15340914  0.91395323  0.42134104    -0.23900
H628        H  0.21005465  0.84642268  0.39594712     0.15100
H629        H  0.08778847  0.86903292  0.28400689     0.15100
C630        C  0.14340951  0.80080187  0.25840313    -0.23800
H631        H  0.18203326  0.90384551  0.44327610     0.05400
H632        H  0.12155230  0.91018576  0.44117017     0.08600
H633        H  0.15806226  0.95011532  0.41233573     0.08600
H634        H  0.13628311  0.76499246  0.26717257     0.08600
H635        H  0.17565660  0.80278726  0.23897710     0.08600
H636        H  0.11576309  0.81248594  0.23599474     0.05300
C637        C  0.28313778  0.67418294  0.52637860    -0.20500
C638        C  0.30416829  0.70945243  0.55045479    -0.07000
C639        C  0.32383398  0.74587911  0.52620263     0.13800
C640        C  0.32017000  0.74682377  0.47894551    -0.20500
C641        C  0.29725933  0.71268234  0.45507189    -0.07000
C642        C  0.27951266  0.67516029  0.47902195     0.13800
C643        C  0.25736019  0.63569805  0.45518242    -0.23900
H644        H  0.26857105  0.64605120  0.54489355     0.15100
H645        H  0.33402099  0.77542301  0.46059905     0.15100
C646        C  0.34685462  0.78511436  0.54959153    -0.23800
H647        H  0.24873479  0.60802314  0.47907907     0.05400
H648        H  0.28073250  0.62155624  0.42903501     0.08600
H649        H  0.22537960  0.64666097  0.43913143     0.08600
H650        H  0.37729006  0.77294675  0.56767286     0.08600
H651        H  0.32313971  0.80154901  0.57396220     0.08600
H652        H  0.35818755  0.81136641  0.52519468     0.05300
C653        C  0.14241016  0.69112058  0.88800975    -0.20500
C654        C  0.11704821  0.65101659  0.88695821    -0.07000
C655        C  0.12541366  0.61832827  0.85276685     0.13800
C656        C  0.15843491  0.62715123  0.81967518    -0.20500
C657        C  0.18445953  0.66692710  0.82108979    -0.07000
C658        C  0.17651014  0.69930430  0.85586279     0.13800
C659        C  0.20300507  0.74291929  0.85879055    -0.23900
H660        H  0.13558710  0.71596165  0.91443851     0.15100
H661        H  0.16493969  0.60204693  0.79340746     0.15100
C662        C  0.10111963  0.57344565  0.85098821    -0.23800
H663        H  0.19019401  0.76530460  0.88645998     0.05400
H664        H  0.20033961  0.76170998  0.82642904     0.08600
H665        H  0.23908636  0.73563260  0.86594310     0.08600
H666        H  0.08242725  0.57046076  0.81861903     0.08600
H667        H  0.07667541  0.56888563  0.87926705     0.08600
H668        H  0.12626956  0.54554969  0.85281696     0.05300
C669        C  0.15382471  0.82060622  0.69820983    -0.20500
C670        C  0.18718293  0.81409685  0.66479148    -0.07000
C671        C  0.18692827  0.84092415  0.62521084     0.13800
C672        C  0.15312929  0.87378956  0.62026640    -0.20500
C673        C  0.12012181  0.88043881  0.65395513    -0.07000
C674        C  0.12054198  0.85383926  0.69359402     0.13800
C675        C  0.08691531  0.85993245  0.73186427    -0.23900
H676        H  0.15424297  0.80014402  0.72862846     0.15100
H677        H  0.15221177  0.89433820  0.58994940     0.15100
C678        C  0.22115299  0.83422797  0.58759141    -0.23800
H679        H  0.06746016  0.82809449  0.73650863     0.05400
H680        H  0.06255146  0.88781490  0.72609835     0.08600
H681        H  0.10528658  0.86774554  0.76366161     0.08600
H682        H  0.22071070  0.79842714  0.57573725     0.08600
H683        H  0.25542284  0.84305269  0.59986311     0.08600
H684        H  0.21391204  0.85618657  0.55806755     0.05300
C685        C  0.30472209  0.84837828  0.82961365    -0.20500
C686        C  0.33975705  0.81857578  0.81750041    -0.07000
C687        C  0.38271866  0.82277975  0.83783982     0.13800
C688        C  0.38916011  0.85595346  0.87126774    -0.20500
C689        C  0.35382064  0.88499868  0.88407074    -0.07000
C690        C  0.31129195  0.88168174  0.86288676     0.13800
C691        C  0.27292012  0.91300099  0.87576554    -0.23900
H692        H  0.27202553  0.84508871  0.81347726     0.15100
H693        H  0.42183756  0.85951558  0.88735970     0.15100
C694        C  0.42212267  0.79344403  0.82328245    -0.23800
H695        H  0.24185241  0.90542407  0.85616958     0.05400
H696        H  0.28271870  0.94864567  0.86896393     0.08600
H697        H  0.26479297  0.90930714  0.91235849     0.08600
H698        H  0.42825585  0.79721089  0.78630718     0.08600
H699        H  0.41489938  0.75741893  0.83094026     0.08600
H700        H  0.45370059  0.80296856  0.84116533     0.05300
C701        C  0.32315966  0.26263778  0.52166013    -0.20500
C702        C  0.29826782  0.29579325  0.54534856    -0.07000
C703        C  0.27833211  0.33180991  0.52103799     0.13800
C704        C  0.28176505  0.33208899  0.47362130    -0.20500
C705        C  0.30411103  0.29723547  0.44974379    -0.07000
C706        C  0.32606759  0.26250175  0.47428818     0.13800
C707        C  0.35044350  0.22359474  0.45126246    -0.23900
H708        H  0.33871936  0.23522692  0.54024890     0.15100
H709        H  0.26566694  0.35911651  0.45492984     0.15100
C710        C  0.25365973  0.37024601  0.54446490    -0.23800
H711        H  0.36367357  0.19878329  0.47603823     0.05400
H712        H  0.37982857  0.23647582  0.43155381     0.08600
H713        H  0.32688760  0.20516678  0.42851923     0.08600
H714        H  0.27594466  0.38612440  0.57019099     0.08600
H715        H  0.22225224  0.35767151  0.56091114     0.08600
H716        H  0.24353746  0.39699706  0.52022804     0.05300
C717        C  0.25866737  0.52425627  0.68260295    -0.20500
C718        C  0.29349812  0.54612507  0.70626560    -0.07000
C719        C  0.32783295  0.51991563  0.72667125     0.13800
C720        C  0.32561552  0.47259475  0.72366551    -0.20500
C721        C  0.28965020  0.45070016  0.70174238    -0.07000
C722        C  0.25583070  0.47698612  0.68050956     0.13800
C723        C  0.21521731  0.45602342  0.65780495    -0.23900
H724        H  0.23218145  0.54432628  0.66728853     0.15100
H725        H  0.35166842  0.45245205  0.73960732     0.15100
C726        C  0.36701370  0.54115741  0.75147666    -0.23800
H727        H  0.19118051  0.48208681  0.64551152     0.05400
H728        H  0.19661490  0.43427196  0.68222904     0.08600
H729        H  0.22616020  0.43563992  0.62795135     0.08600
H730        H  0.35479623  0.55867897  0.78262494     0.08600
H731        H  0.38467908  0.56562532  0.72905811     0.08600
H732        H  0.39213114  0.51539930  0.76218646     0.05300
C733        C  0.14442792  0.12474105  0.61470511    -0.20500
C734        C  0.11290595  0.11636769  0.64933718    -0.07000
C735        C  0.11445184  0.14192075  0.68998113     0.13800
C736        C  0.14749320  0.17557759  0.69480166    -0.20500
C737        C  0.17971979  0.18342431  0.66058265    -0.07000
C738        C  0.17804069  0.15789029  0.61984480     0.13800
C739        C  0.21073142  0.16617950  0.58127714    -0.23900
H740        H  0.14289025  0.10488570  0.58370780     0.15100
H741        H  0.14883963  0.19505822  0.72606909     0.15100
C742        C  0.08258727  0.13384354  0.72927729    -0.23800
H743        H  0.20265917  0.14501978  0.55113238     0.05400
H744        H  0.24567393  0.15760712  0.59173049     0.08600
H745        H  0.20923932  0.20230047  0.57102948     0.08600
H746        H  0.05817972  0.10606840  0.72297173     0.08600
H747        H  0.06302712  0.16522843  0.73656003     0.08600
H748        H  0.10242065  0.12482597  0.75974525     0.05300
C749        C  0.31587408  0.11144648  0.85279314    -0.20500
C750        C  0.35602410  0.11475459  0.87758176    -0.07000
C751        C  0.38813841  0.14828531  0.86668129     0.13800
C752        C  0.37783815  0.18005272  0.83320624    -0.20500
C753        C  0.33712534  0.17755161  0.80903431    -0.07000
C754        C  0.30633963  0.14196664  0.81793580     0.13800
C755        C  0.26302771  0.13660902  0.79173603    -0.23900
H756        H  0.29190857  0.08485429  0.86094820     0.15100
H757        H  0.40197712  0.20657330  0.82531557     0.15100
C758        C  0.43351845  0.14970942  0.88954889    -0.23800
H759        H  0.24222522  0.10808009  0.80469513     0.05400
H760        H  0.27085022  0.12935287  0.75555455     0.08600
H761        H  0.24253277  0.16807409  0.79447258     0.10600
H762        H  0.45142041  0.11704277  0.88373333     0.08600
H763        H  0.42908814  0.15531433  0.92652467     0.08600
H764        H  0.45513491  0.17736134  0.87603410     0.05300
C765        C  0.16433565  0.38013986  0.81929529    -0.20500
C766        C  0.18525252  0.33735110  0.81907747    -0.07000
C767        C  0.17418597  0.30557581  0.85301438     0.13800
C768        C  0.14189332  0.31721539  0.88605214    -0.20500
C769        C  0.12081679  0.35975394  0.88596082    -0.07000
C770        C  0.13244597  0.39188465  0.85278280     0.13800
C771        C  0.11143098  0.43841227  0.85309588    -0.23900
H772        H  0.17343818  0.40459675  0.79351103     0.15100
H773        H  0.13235398  0.29281361  0.91172411     0.15100
C774        C  0.19489774  0.25885007  0.85349949    -0.23800
H775        H  0.12462139  0.45956428  0.82493643     0.05400
H776        H  0.11914816  0.45588509  0.88558158     0.08600
H777        H  0.07417258  0.43561927  0.84945868     0.08600
H778        H  0.23190137  0.26120478  0.85914868     0.08600
H779        H  0.18849341  0.24139277  0.82071312     0.08600
H780        H  0.18036525  0.23769922  0.88099921     0.05300
C781        C  0.73028791  0.32009497  0.52923587    -0.20500
C782        C  0.70136863  0.28893736  0.55059077    -0.07000
C783        C  0.67155655  0.26269770  0.52353743     0.13800
C784        C  0.67392922  0.26635097  0.47620606    -0.20500
C785        C  0.70519748  0.29520124  0.45483891    -0.07000
C786        C  0.73277763  0.32364595  0.48200787     0.13800
C787        C  0.76507966  0.35800967  0.46218493    -0.23900
H788        H  0.75217003  0.34129093  0.54968012     0.15100
H789        H  0.65223519  0.24501870  0.45570479     0.15100
C790        C  0.63813429  0.22956139  0.54350605    -0.23800
H791        H  0.78059352  0.37964224  0.48880328     0.05400
H792        H  0.74674015  0.38071704  0.43871783     0.08600
H793        H  0.79327080  0.34062634  0.44408602     0.08600
H794        H  0.61359676  0.24778464  0.56574416     0.08600
H795        H  0.65628641  0.20328821  0.56309321     0.08600
H796        H  0.61831628  0.21182391  0.51692470     0.05300
C797        C  0.47317690  0.31321322  0.74617825    -0.20500
C798        C  0.45156158  0.29649535  0.70731362    -0.07000
C799        C  0.47806537  0.28112162  0.67016804     0.13800
C800        C  0.52541002  0.28118253  0.67370061    -0.20500
C801        C  0.54701914  0.29584856  0.71343844    -0.07000
C802        C  0.52043246  0.31263865  0.75004207     0.13800
C803        C  0.54108988  0.32741611  0.79435150    -0.23900
H804        H  0.45282157  0.32474982  0.77473795     0.15100
H805        H  0.54573751  0.26875759  0.64550026     0.15100
C806        C  0.45689037  0.26507672  0.62657507    -0.23800
H807        H  0.51488352  0.33692614  0.81989338     0.05400
H808        H  0.56288473  0.35754535  0.78900221     0.08600
H809        H  0.56140089  0.29930400  0.80865244     0.08600
H810        H  0.43401129  0.29168107  0.61332011     0.08600
H811        H  0.43754700  0.23340425  0.63229794     0.08600
H812        H  0.48284536  0.25765027  0.60011983     0.05300
C813        C  0.61800302  0.17318720  0.83887837    -0.20500
C814        C  0.65953036  0.17205008  0.81552921    -0.07000
C815        C  0.69115618  0.13740589  0.82439541     0.13800
C816        C  0.68116705  0.10571725  0.85803424    -0.20500
C817        C  0.64016119  0.10761160  0.88214045    -0.07000
C818        C  0.60753830  0.14072340  0.87163330     0.13800
C819        C  0.56154203  0.14235505  0.89398273    -0.23900
H820        H  0.59341063  0.19928552  0.83114910     0.15100
H821        H  0.70580944  0.07988918  0.86639375     0.15100
C822        C  0.73612621  0.13493152  0.79999194    -0.23800
H823        H  0.53513438  0.13930170  0.86758586     0.05400
H824        H  0.55717405  0.17515688  0.91212122     0.08600
H825        H  0.55612461  0.11458802  0.91857160     0.08600
H826        H  0.75478447  0.16718622  0.80492002     0.08600
H827        H  0.73087841  0.12887045  0.76324836     0.08600
H828        H  0.75751038  0.10691978  0.81286567     0.05300
C829        C  0.81513738  0.14944323  0.62754768    -0.20500
C830        C  0.81683915  0.17564456  0.66740358    -0.07000
C831        C  0.85203187  0.16830444  0.69884093     0.13800
C832        C  0.88421211  0.13453043  0.68979204    -0.20500
C833        C  0.88258300  0.10872276  0.64985339    -0.07000
C834        C  0.84812853  0.11646615  0.61807433     0.13800
C835        C  0.84696234  0.09072967  0.57385158    -0.23900
H836        H  0.78855982  0.15562581  0.60321934     0.15100
H837        H  0.91097868  0.12818123  0.71388216     0.15100
C838        C  0.85523857  0.19493369  0.74249725    -0.23800
H839        H  0.81836350  0.10175946  0.55233110     0.05400
H840        H  0.84310977  0.05392909  0.58034052     0.08600
H841        H  0.87894735  0.09655466  0.55474891     0.08600
H842        H  0.82311264  0.19173177  0.76186665     0.08600
H843        H  0.86202332  0.23116924  0.73531585     0.08600
H844        H  0.88310779  0.18249739  0.76421056     0.05300
C845        C  0.84235681  0.36870910  0.81892709    -0.20500
C846        C  0.81740816  0.32832063  0.82255289    -0.07000
C847        C  0.82656989  0.29832787  0.85862474     0.13800
C848        C  0.86017282  0.30973597  0.89017070    -0.20500
C849        C  0.88456899  0.35036376  0.88666754    -0.07000
C850        C  0.87548158  0.38029076  0.85079812     0.13800
C851        C  0.90005443  0.42484371  0.84675920    -0.23900
H852        H  0.83521324  0.39182013  0.79146990     0.15100
H853        H  0.86770642  0.28679892  0.91766830     0.15100
C854        C  0.80227606  0.25367179  0.86319997    -0.23800
H855        H  0.88798458  0.44477517  0.81741810     0.05400
H856        H  0.93687554  0.41889095  0.84208444     0.08600
H857        H  0.89440494  0.44536742  0.87797594     0.08600
H858        H  0.80679309  0.23343452  0.83168890     0.08600
H859        H  0.76567787  0.25943391  0.86961367     0.08600
H860        H  0.81556863  0.23346400  0.89181703     0.05300
C861        C  0.68191090  0.74081955  0.53544003    -0.20500
C862        C  0.70211329  0.70315253  0.55594495    -0.07000
C863        C  0.71882578  0.66728032  0.52854736     0.13800
C864        C  0.71871264  0.67214767  0.48137135    -0.20500
C865        C  0.70117071  0.71121695  0.46103183    -0.07000
C866        C  0.68096880  0.74531642  0.48836668     0.13800
C867        C  0.66036540  0.78760689  0.46868975    -0.23900
H868        H  0.66846006  0.76803578  0.55642164     0.15100
H869        H  0.73285313  0.64544274  0.46017010     0.15100
C870        C  0.73566643  0.62346720  0.54842805    -0.23800
H871        H  0.64813049  0.81131524  0.49550449     0.05400
H872        H  0.63078769  0.77853336  0.44752706     0.08600
H873        H  0.68593729  0.80580608  0.44790468     0.08600
H874        H  0.70923543  0.60888231  0.57097670     0.08600
H875        H  0.76714467  0.62922112  0.56781975     0.08600
H876        H  0.74354341  0.59796751  0.52163932     0.05300
C877        C  0.52785238  0.67857950  0.74944736    -0.20500
C878        C  0.55096788  0.70339300  0.71608620    -0.07000
C879        C  0.52603346  0.72622332  0.68242743     0.13800
C880        C  0.47877268  0.72364192  0.68332055    -0.20500
C881        C  0.45554332  0.69998154  0.71747103    -0.07000
C882        C  0.48054468  0.67696754  0.75105384     0.13800
C883        C  0.45817759  0.65243194  0.78996065    -0.23900
H884        H  0.54695292  0.66159909  0.77558730     0.15100
H885        H  0.45970835  0.74119144  0.65753839     0.15100
C886        C  0.54851863  0.75322088  0.64528256    -0.23800
H887        H  0.48334458  0.63861839  0.81401916     0.05400
H888        H  0.43811464  0.62342203  0.77698417     0.08600
H889        H  0.43589976  0.67608070  0.80924415     0.08600
H890        H  0.57326916  0.73163913  0.62660328     0.08600
H891        H  0.56586134  0.78322434  0.65988802     0.08600
H892        H  0.52361040  0.76602780  0.62041927     0.05300
C893        C  0.73523005  0.51794173  0.68097594    -0.20500
C894        C  0.70498198  0.54062928  0.71022347    -0.07000
C895        C  0.67440982  0.51486301  0.73693339     0.13800
C896        C  0.67671287  0.46747478  0.73512801    -0.20500
C897        C  0.70883161  0.44483854  0.70788967    -0.07000
C898        C  0.73796150  0.47061454  0.67960880     0.13800
C899        C  0.77356483  0.44928045  0.64928581    -0.23900
H900        H  0.75853913  0.53740217  0.66030418     0.15100
H901        H  0.65375990  0.44791933  0.75611902     0.15100
C902        C  0.63915445  0.53641578  0.76750162    -0.23800
H903        H  0.79409402  0.47508352  0.63117545     0.05400
H904        H  0.75725118  0.42778804  0.62308360     0.08600
H905        H  0.79716600  0.42868234  0.66981631     0.08600
H906        H  0.61808843  0.56033835  0.74781977     0.08600
H907        H  0.65563332  0.55445386  0.79605027     0.08600
H908        H  0.61612791  0.51080034  0.78264252     0.05300
C909        C  0.70068680  0.84599706  0.83301887    -0.20500
C910        C  0.66693860  0.81438515  0.82243615    -0.07000
C911        C  0.62454291  0.81630445  0.84512394     0.13800
C912        C  0.61759872  0.84895792  0.87910443    -0.20500
C913        C  0.65174393  0.87971596  0.89032681    -0.07000
C914        C  0.69353916  0.87872867  0.86688576     0.13800
C915        C  0.73055927  0.91201413  0.87796144    -0.23900
H916        H  0.73292966  0.84456932  0.81525533     0.15100
H917        H  0.58538930  0.85078936  0.89687003     0.15100
C918        C  0.58597791  0.78525078  0.83255584    -0.23800
H919        H  0.76123876  0.90622408  0.85671156     0.05400
H920        H  0.74023211  0.90859315  0.91406789     0.08600
H921        H  0.71854769  0.94710973  0.87193721     0.08600
H922        H  0.59459425  0.74962517  0.84061395     0.08600
H923        H  0.57876809  0.78819088  0.79579544     0.08600
H924        H  0.55447815  0.79389626  0.85150766     0.05300
C925        C  0.84344649  0.62075019  0.82326057    -0.20500
C926        C  0.81483047  0.65867552  0.82609494    -0.07000
C927        C  0.82000301  0.69032734  0.86193234     0.13800
C928        C  0.85350415  0.68286235  0.89418192    -0.20500
C929        C  0.88161625  0.64469579  0.89162042    -0.07000
C930        C  0.87663485  0.61310839  0.85585877     0.13800
C931        C  0.90548800  0.57111958  0.85120828    -0.23900
H932        H  0.83944029  0.59649820  0.79580269     0.15100
H933        H  0.85826782  0.70718214  0.92144104     0.15100
C934        C  0.79176272  0.73289774  0.86558212    -0.23800
H935        H  0.92506826  0.57250985  0.81897053     0.05400
H936        H  0.88343681  0.54066789  0.85063795     0.08600
H937        H  0.92967876  0.56701455  0.87939802     0.08600
H938        H  0.75584745  0.72420847  0.87245013     0.08600
H939        H  0.79438145  0.75245460  0.83364884     0.08600
H940        H  0.80315840  0.75522791  0.89370443     0.05300
C941        C  0.82685588  0.82623707  0.62838536    -0.20500
C942        C  0.82707215  0.80294148  0.66971466    -0.07000
C943        C  0.85993785  0.81357388  0.70266375     0.13800
C944        C  0.89114128  0.84824133  0.69377198    -0.20500
C945        C  0.89024080  0.87198680  0.65276228    -0.07000
C946        C  0.85845210  0.86039506  0.61932633     0.13800
C947        C  0.85822707  0.88381795  0.57410131    -0.23900
H948        H  0.80182655  0.81758075  0.60308421     0.15100
H949        H  0.91602623  0.85736589  0.71904959     0.15100
C950        C  0.86100969  0.78991468  0.74779022    -0.23800
H951        H  0.83160090  0.87002486  0.55151614     0.05400
H952        H  0.89150051  0.87905552  0.55695543     0.08600
H953        H  0.85180187  0.92059802  0.57895217     0.08600
H954        H  0.86802603  0.75326611  0.74274936     0.08600
H955        H  0.82794739  0.79421999  0.76543609     0.08600
H956        H  0.88778417  0.80388125  0.77009862     0.05300
loop_ 
_geom_bond_atom_site_label_1 
_geom_bond_atom_site_label_2 
_geom_bond_distance 
_geom_bond_site_symmetry_2 
_ccdc_geom_bond_type 
Fe1          O17   2.040       .  S
Fe1           O7   2.074       .  S
Fe1          O14   2.072       .  S
Fe1           O6   2.051       .  S
Fe1          O12   1.939       .  S
Fe2           O5   2.051       .  S
Fe2           O9   2.074       .  S
Fe2          O13   2.054       .  S
Fe2          O18   2.077       .  S
Fe2          O12   1.941       .  S
Fe3          O21   2.063       .  S
Fe3           O8   2.033       .  S
Fe3          O15   2.040       .  S
Fe3           O4   2.067       .  S
Fe3          O12   1.937       .  S
O4           C11   1.269       .  A
O5           C19   1.267       .  A
O6           C11   1.267       .  A
O7           C10   1.270       .  A
O8           C20   1.266       .  A
O9           C22   1.271       .  A
C10          O15   1.267       .  A
C10         C878   1.475       .  S
C11         C910   1.468       .  S
O13          C16   1.267       .  A
O14          C16   1.270       .  A
C16         C942   1.470       .  S
O17          C22   1.267       .  A
O18          C20   1.273       .  A
C19          O21   1.266       .  A
C19         C894   1.482       .  S
C20         C926   1.468       .  S
C22         C862   1.473       .  S
Fe23         O39   2.073       .  S
Fe23         O29   2.040       .  S
Fe23         O36   2.041       .  S
Fe23         O28   2.081       .  S
Fe23         O34   1.947       .  S
Fe24         O27   2.077       .  S
Fe24         O31   2.046       .  S
Fe24         O35   2.087       .  S
Fe24         O40   2.042       .  S
Fe24         O34   1.950       .  S
Fe25         O43   2.056       .  S
Fe25         O30   2.071       .  S
Fe25         O37   2.077       .  S
Fe25         O26   2.063       .  S
Fe25         O34   1.950       .  S
O26          C33   1.268       .  A
O27          C41   1.273       .  A
O28          C33   1.271       .  A
O29          C32   1.265       .  A
O30          C42   1.270       .  A
O31          C44   1.263       .  A
C32          O37   1.273       .  A
C32         C897   1.483       .  S
C33         C846   1.483       .  S
O35          C38   1.274       .  A
O36          C38   1.266       .  A
C38         C830   1.474       .  S
O39          C44   1.271       .  A
O40          C42   1.265       .  A
C41          O43   1.268       .  A
C41         C801   1.482       .  S
C42         C814   1.464       .  S
C44         C782   1.487       .  S
Fe45         O61   2.053       .  S
Fe45         O51   2.078       .  S
Fe45         O58   2.075       .  S
Fe45         O50   2.042       .  S
Fe45         O56   1.947       .  S
Fe46         O49   2.050       .  S
Fe46         O53   2.082       .  S
Fe46         O57   2.048       .  S
Fe46         O62   2.077       .  S
Fe46         O56   1.942       .  S
Fe47         O65   2.078       .  S
Fe47         O52   2.049       .  S
Fe47         O59   2.047       .  S
Fe47         O48   2.074       .  S
Fe47         O56   1.944       .  S
O48          C55   1.273       .  A
O49          C63   1.267       .  A
O50          C55   1.266       .  A
O51          C54   1.271       .  A
O52          C64   1.267       .  A
O53          C66   1.272       .  A
C54          O59   1.266       .  A
C54         C766   1.470       .  S
C55         C721   1.476       .  S
O57          C60   1.268       .  A
O58          C60   1.270       .  A
C60         C702   1.480       .  S
O61          C66   1.268       .  A
O62          C64   1.271       .  A
C63          O65   1.272       .  A
C63         C753   1.473       .  S
C64         C798   1.479       .  S
C66         C737   1.475       .  S
Fe67         O83   2.079       .  S
Fe67         O73   2.045       .  S
Fe67         O80   2.046       .  S
Fe67         O72   2.084       .  S
Fe67         O78   1.942       .  S
Fe68         O71   2.070       .  S
Fe68         O75   2.048       .  S
Fe68         O79   2.071       .  S
Fe68         O84   2.049       .  S
Fe68         O78   1.943       .  S
Fe69         O87   2.045       .  S
Fe69         O74   2.070       .  S
Fe69         O81   2.071       .  S
Fe69         O70   2.044       .  S
Fe69         O78   1.944       .  S
O70          C77   1.266       .  A
O71          C85   1.272       .  A
O72          C77   1.272       .  A
O73          C76   1.268       .  A
O74          C86   1.269       .  A
O75          C88   1.267       .  A
C76          O81   1.270       .  A
C76         C718   1.476       .  S
C77         C657   1.474       .  S
O79          C82   1.269       .  A
O80          C82   1.267       .  A
C82         C670   1.468       .  S
O83          C88   1.273       .  A
O84          C86   1.266       .  A
C85          O87   1.266       .  A
C85         C881   1.478       .  S
C86         C686   1.463       .  S
C88         C638   1.480       .  S
Fe89        O105   2.040       .  S
Fe89         O95   2.071       .  S
Fe89        O102   2.072       .  S
Fe89         O94   2.038       .  S
Fe89        O100   1.947       .  S
Fe90         O93   2.047       .  S
Fe90         O97   2.068       .  S
Fe90        O101   2.046       .  S
Fe90        O106   2.064       .  S
Fe90        O100   1.947       .  S
Fe91        O109   2.079       .  S
Fe91         O96   2.054       .  S
Fe91        O103   2.059       .  S
Fe91         O92   2.078       .  S
Fe91        O100   1.946       .  S
O92          C99   1.273       .  A
O93         C107   1.266       .  A
O94          C99   1.265       .  A
O95          C98   1.269       .  A
O96         C108   1.269       .  A
O97         C110   1.270       .  A
C98         O103   1.268       .  A
C98         C593   1.470       .  S
C99         C558   1.474       .  S
O101        C104   1.266       .  A
O102        C104   1.269       .  A
C104        C641   1.479       .  S
O105        C110   1.265       .  A
O106        C108   1.268       .  A
C107        O109   1.272       .  A
C107        C609   1.475       .  S
C108        C574   1.479       .  S
C110        C622   1.466       .  S
Fe111       O127   2.067       .  S
Fe111       O117   2.040       .  S
Fe111       O124   2.045       .  S
Fe111       O116   2.078       .  S
Fe111       O122   1.940       .  S
Fe112       O115   2.071       .  S
Fe112       O119   2.051       .  S
Fe112       O123   2.073       .  S
Fe112       O128   2.056       .  S
Fe112       O122   1.946       .  S
Fe113       O131   2.040       .  S
Fe113       O118   2.088       .  S
Fe113       O125   2.086       .  S
Fe113       O114   2.044       .  S
Fe113       O122   1.945       .  S
O114        C121   1.266       .  A
O115        C129   1.271       .  A
O116        C121   1.272       .  A
O117        C120   1.264       .  A
O118        C130   1.274       .  A
O119        C132   1.269       .  A
C120        O125   1.274       .  A
C120        C577   1.480       .  S
C121        C526   1.469       .  S
O123        C126   1.269       .  A
O124        C126   1.267       .  A
C126        C510   1.469       .  S
O127        C132   1.269       .  A
O128        C130   1.268       .  A
C129        O131   1.264       .  A
C129        C865   1.471       .  S
C130        C542   1.480       .  S
C132        C494   1.475       .  S
Fe133       O149   2.074       .  S
Fe133       O139   2.042       .  S
Fe133       O146   2.046       .  S
Fe133       O138   2.078       .  S
Fe133       O144   1.948       .  S
Fe134       O137   2.078       .  S
Fe134       O141   2.043       .  S
Fe134       O145   2.079       .  S
Fe134       O150   2.046       .  S
Fe134       O144   1.943       .  S
Fe135       O153   2.043       .  S
Fe135       O140   2.082       .  S
Fe135       O147   2.074       .  S
Fe135       O136   2.040       .  S
Fe135       O144   1.943       .  S
O136        C143   1.265       .  A
O137        C151   1.273       .  A
O138        C143   1.272       .  A
O139        C142   1.264       .  A
O140        C152   1.272       .  A
O141        C154   1.267       .  A
C142        O147   1.272       .  A
C142        C430   1.477       .  S
C143        C465   1.472       .  S
O145        C148   1.272       .  A
O146        C148   1.266       .  A
C148        C449   1.475       .  S
O149        C154   1.270       .  A
O150        C152   1.266       .  A
C151        O153   1.265       .  A
C151        C705   1.480       .  S
C152        C481   1.477       .  S
C154        C561   1.473       .  S
Fe155       O171   2.038       .  S
Fe155       O161   2.067       .  S
Fe155       O168   2.071       .  S
Fe155       O160   2.042       .  S
Fe155       O166   1.943       .  S
Fe156       O159   2.046       .  S
Fe156       O163   2.083       .  S
Fe156       O167   2.045       .  S
Fe156       O172   2.085       .  S
Fe156       O166   1.941       .  S
Fe157       O175   2.069       .  S
Fe157       O162   2.053       .  S
Fe157       O169   2.054       .  S
Fe157       O158   2.073       .  S
Fe157       O166   1.941       .  S
O158        C165   1.270       .  A
O159        C173   1.267       .  A
O160        C165   1.266       .  A
O161        C164   1.268       .  A
O162        C174   1.268       .  A
O163        C176   1.274       .  A
C164        O169   1.269       .  A
C164        C785   1.485       .  S
C165        C417   1.463       .  S
O167        C170   1.266       .  A
O168        C170   1.269       .  A
C170        C398   1.466       .  S
O171        C176   1.265       .  A
O172        C174   1.273       .  A
C173        O175   1.269       .  A
C173        C433   1.477       .  S
C174        C382   1.477       .  S
C176        C497   1.475       .  S
N177        C182   1.354   1_545  A
N177        C181   1.350       .  A
N177        H209   1.040       .  S
N178        C185   1.345   1_455  A
N178        C186   1.349       .  A
N179        C184   1.347   1_545  A
N179        C183   1.351       .  A
N179        H210   1.041       .  S
N180        C187   1.349   1_455  A
N180        C188   1.347       .  A
C181        C189   1.388       .  A
C181        C197   1.412       .  A
C182        C198   1.412       .  A
C182        C190   1.385       .  A
C183        C191   1.386       .  A
C183        C200   1.408       .  A
C184        C199   1.407       .  A
C184        C192   1.388       .  A
C185        C197   1.406       .  A
C185        C193   1.387       .  A
C186        C200   1.407       .  A
C186        C194   1.385       .  A
C187        C195   1.385       .  A
C187        C198   1.407       .  A
C188        C196   1.387       .  A
C188        C199   1.407       .  A
C189        C190   1.375   1_545  A
C189        H201   1.082       .  S
C190        H202   1.082       .  S
C191        C192   1.375   1_545  A
C191        H203   1.082       .  S
C192        H204   1.082       .  S
C193        C194   1.373   1_655  A
C193        H205   1.082       .  S
C194        H206   1.082       .  S
C195        C196   1.373   1_655  A
C195        H207   1.082       .  S
C196        H208   1.082       .  S
C197        C414   1.474       .  S
C198        C545   1.488       .  S
C199        C625   1.472       .  S
C200        C478   1.483       .  S
N211        C216   1.351   1_565  A
N211        C215   1.350       .  A
N211        H243   1.040       .  S
N212        C219   1.347       .  A
N212        C220   1.347   1_455  A
N213        C218   1.350   1_565  A
N213        C217   1.351       .  A
N213        H244   1.040       .  S
N214        C221   1.349   1_655  A
N214        C222   1.348       .  A
C215        C223   1.387       .  A
C215        C231   1.409       .  A
C216        C232   1.410       .  A
C216        C224   1.387       .  A
C217        C225   1.387       .  A
C217        C234   1.411       .  A
C218        C233   1.412       .  A
C218        C226   1.388       .  A
C219        C231   1.406       .  A
C219        C227   1.386       .  A
C220        C234   1.405       .  A
C220        C228   1.385       .  A
C221        C229   1.385       .  A
C221        C232   1.408       .  A
C222        C230   1.386       .  A
C222        C233   1.409       .  A
C223        C224   1.376   1_565  A
C223        H235   1.082       .  S
C224        H236   1.082       .  S
C225        C226   1.376   1_565  A
C225        H237   1.082       .  S
C226        H238   1.082       .  S
C227        C228   1.372   1_455  A
C227        H239   1.082       .  S
C228        H240   1.082       .  S
C229        C230   1.374   1_455  A
C229        H241   1.082       .  S
C230        H242   1.082       .  S
C231        C673   1.476       .  S
C232        C734   1.481       .  S
C233        C833   1.480       .  S
C234        C945   1.480       .  S
N245        C250   1.348   1_545  A
N245        C249   1.350       .  A
N245        H277   1.038       .  S
N246        C253   1.350       .  A
N246        C254   1.348   1_556  A
N247        C252   1.351   1_545  A
N247        C251   1.349       .  A
N247        H278   1.038       .  S
N248        C255   1.349   1_554  A
N248        C256   1.350       .  A
C249        C257   1.386       .  A
C249        C265   1.408       .  A
C250        C266   1.407       .  A
C250        C258   1.387       .  A
C251        C259   1.387       .  A
C251        C268   1.411       .  A
C252        C267   1.411       .  A
C252        C260   1.387       .  A
C253        C265   1.409       .  A
C253        C261   1.385       .  A
C254        C268   1.410       .  A
C254        C262   1.387       .  A
C255        C263   1.386       .  A
C255        C266   1.409       .  A
C256        C264   1.386       .  A
C256        C267   1.410       .  A
C257        C258   1.375   1_545  A
C257        H269   1.082       .  S
C258        H270   1.082       .  S
C259        C260   1.376   1_545  A
C259        H271   1.082       .  S
C260        H272   1.083       .  S
C261        C262   1.372   1_556  A
C261        H273   1.082       .  S
C262        H274   1.082       .  S
C263        C264   1.373   1_556  A
C263        H275   1.082       .  S
C264        H276   1.082       .  S
C265        C750   1.481       .  S
C266        C689   1.475       .  S
C267        C606   1.482       .  S
C268        C462   1.478       .  S
N279        C284   1.353   1_455  A
N279        C283   1.351       .  A
N279        H311   1.040       .  S
N280        C287   1.347   1_554  A
N280        C288   1.349       .  A
N281        C286   1.349   1_455  A
N281        C285   1.351       .  A
N281        H312   1.041       .  S
N282        C289   1.350   1_554  A
N282        C290   1.348       .  A
C283        C291   1.388       .  A
C283        C299   1.412       .  A
C284        C300   1.413       .  A
C284        C292   1.386       .  A
C285        C293   1.387       .  A
C285        C302   1.409       .  A
C286        C301   1.408       .  A
C286        C294   1.387       .  A
C287        C299   1.407       .  A
C287        C295   1.386       .  A
C288        C302   1.407       .  A
C288        C296   1.385       .  A
C289        C297   1.385       .  A
C289        C300   1.409       .  A
C290        C298   1.386       .  A
C290        C301   1.408       .  A
C291        C292   1.375   1_455  A
C291        H303   1.082       .  S
C292        H304   1.082       .  S
C293        C294   1.373   1_455  A
C293        H305   1.082       .  S
C294        H306   1.082       .  S
C295        C296   1.374   1_556  A
C295        H307   1.082       .  S
C296        H308   1.082       .  S
C297        C298   1.375   1_556  A
C297        H309   1.082       .  S
C298        H310   1.082       .  S
C299        C769   1.478       .  S
C300        C849   1.488       .  S
C301        C401   1.475       .  S
C302        C446   1.482       .  S
N313        C318   1.348   1_565  A
N313        C317   1.349       .  A
N313        H345   1.036       .  S
N314        C321   1.349   1_554  A
N314        C322   1.347       .  A
N315        C320   1.352       .  A
N315        C319   1.351   1_545  A
N315        H346   1.036       .  S
N316        C323   1.349   1_554  A
N316        C324   1.350       .  A
C317        C325   1.387       .  A
C317        C333   1.406       .  A
C318        C334   1.406       .  A
C318        C326   1.386       .  A
C319        C327   1.387       .  A
C319        C336   1.412       .  A
C320        C335   1.412       .  A
C320        C328   1.386       .  A
C321        C333   1.408       .  A
C321        C329   1.385       .  A
C322        C336   1.409       .  A
C322        C330   1.387       .  A
C323        C331   1.386       .  A
C323        C334   1.409       .  A
C324        C332   1.386       .  A
C324        C335   1.409       .  A
C325        C326   1.375   1_565  A
C325        H337   1.082       .  S
C326        H338   1.082       .  S
C327        C328   1.376   1_565  A
C327        H339   1.082       .  S
C328        H340   1.082       .  S
C329        C330   1.373   1_556  A
C329        H341   1.082       .  S
C330        H342   1.082       .  S
C331        C332   1.372   1_556  A
C331        H343   1.082       .  S
C332        H344   1.082       .  S
C333        C913   1.476       .  S
C334        C817   1.473       .  S
C335        C385   1.485       .  S
C336        C529   1.478       .  S
N347        C352   1.351   1_655  A
N347        C351   1.349       .  A
N347        H379   1.040   1_655  S
N348        C355   1.348   1_554  A
N348        C356   1.348       .  A
N349        C354   1.351       .  A
N349        C353   1.351   1_455  A
N349        H380   1.040       .  S
N350        C357   1.348   1_554  A
N350        C358   1.348       .  A
C351        C359   1.388       .  A
C351        C367   1.410       .  A
C352        C368   1.409       .  A
C352        C360   1.386       .  A
C353        C361   1.387       .  A
C353        C370   1.410       .  A
C354        C369   1.411       .  A
C354        C362   1.387       .  A
C355        C367   1.408       .  A
C355        C363   1.387       .  A
C356        C370   1.407       .  A
C356        C364   1.386       .  A
C357        C365   1.385       .  A
C357        C368   1.407       .  A
C358        C366   1.386       .  A
C358        C369   1.407       .  A
C359        C360   1.374   1_655  A
C359        H371   1.082       .  S
C360        H372   1.082       .  S
C361        C362   1.376   1_655  A
C361        H373   1.082       .  S
C362        H374   1.082       .  S
C363        C364   1.372   1_556  A
C363        H375   1.082       .  S
C364        H376   1.083       .  S
C365        C366   1.372   1_556  A
C365        H377   1.082       .  S
C366        H378   1.082       .  S
C367        C929   1.476       .  S
C368        C654   1.481       .  S
C369        C590   1.478       .  S
C370        C513   1.478       .  S
C381        C382   1.405       .  A
C381        C386   1.404       .  A
C381        H388   1.084       .  S
C382        C383   1.415       .  A
C383        C384   1.401       .  A
C383        C390   1.508       .  S
C384        C385   1.402       .  A
C384        H389   1.084       .  S
C385        C386   1.412       .  A
C386        C387   1.508       .  S
C387        H391   1.111       .  S
C387        H392   1.110       .  S
C387        H393   1.109       .  S
C390        H394   1.109       .  S
C390        H395   1.110       .  S
C390        H396   1.111       .  S
C397        C398   1.404       .  A
C397        C402   1.400       .  A
C397        H404   1.085       .  S
C398        C399   1.412       .  A
C399        C400   1.397       .  A
C399        C406   1.508       .  S
C400        C401   1.400       .  A
C400        H405   1.084       .  S
C401        C402   1.412       .  A
C402        C403   1.508       .  S
C403        H407   1.110       .  S
C403        H408   1.111       .  S
C403        H409   1.108       .  S
C406        H410   1.109       .  S
C406        H411   1.111       .  S
C406        H412   1.111       .  S
C413        C414   1.398       .  A
C413        C418   1.399       .  A
C413        H420   1.084       .  S
C414        C415   1.411       .  A
C415        C416   1.398       .  A
C415        C422   1.507       .  S
C416        C417   1.401       .  A
C416        H421   1.085       .  S
C417        C418   1.414       .  A
C418        C419   1.509       .  S
C419        H423   1.111       .  S
C419        H424   1.109       .  S
C419        H425   1.111       .  S
C422        H426   1.110       .  S
C422        H427   1.110       .  S
C422        H428   1.111       .  S
C429        C430   1.404       .  A
C429        C434   1.400       .  A
C429        H436   1.084       .  S
C430        C431   1.417       .  A
C431        C432   1.399       .  A
C431        C438   1.510       .  S
C432        C433   1.404       .  A
C432        H437   1.084       .  S
C433        C434   1.416       .  A
C434        C435   1.509       .  S
C435        H439   1.111       .  S
C435        H440   1.110       .  S
C435        H441   1.109       .  S
C438        H442   1.110       .  S
C438        H443   1.111       .  S
C438        H444   1.111       .  S
C445        C446   1.402       .  A
C445        C450   1.401       .  A
C445        H452   1.084       .  S
C446        C447   1.410       .  A
C447        C448   1.400       .  A
C447        C454   1.507       .  S
C448        C449   1.404       .  A
C448        H453   1.084       .  S
C449        C450   1.416       .  A
C450        C451   1.509       .  S
C451        H455   1.111       .  S
C451        H456   1.110       .  S
C451        H457   1.109       .  S
C454        H458   1.109       .  S
C454        H459   1.110       .  S
C454        H460   1.111       .  S
C461        C462   1.401       .  A
C461        C466   1.399       .  A
C461        H468   1.084       .  S
C462        C463   1.412       .  A
C463        C464   1.399       .  A
C463        C470   1.508       .  S
C464        C465   1.404       .  A
C464        H469   1.085       .  S
C465        C466   1.416       .  A
C466        C467   1.509       .  S
C467        H471   1.111       .  S
C467        H472   1.110       .  S
C467        H473   1.109       .  S
C470        H474   1.110       .  S
C470        H475   1.108       .  S
C470        H476   1.111       .  S
C477        C478   1.401       .  A
C477        C482   1.401       .  A
C477        H484   1.084       .  S
C478        C479   1.410       .  A
C479        C480   1.402       .  A
C479        C486   1.507       .  S
C480        C481   1.405       .  A
C480        H485   1.084       .  S
C481        C482   1.417       .  A
C482        C483   1.509       .  S
C483        H487   1.109       .  S
C483        H488   1.111       .  S
C483        H489   1.110       .  S
C486        H490   1.110       .  S
C486        H491   1.110       .  S
C486        H492   1.111       .  S
C493        C494   1.402       .  A
C493        C498   1.399       .  A
C493        H500   1.084       .  S
C494        C495   1.416       .  A
C495        C496   1.401       .  A
C495        C502   1.509       .  S
C496        C497   1.403       .  A
C496        H501   1.084       .  S
C497        C498   1.417       .  A
C498        C499   1.510       .  S
C499        H503   1.111       .  S
C499        H504   1.111       .  S
C499        H505   1.109       .  S
C502        H506   1.109       .  S
C502        H507   1.110       .  S
C502        H508   1.111       .  S
C509        C510   1.400       .  A
C509        C514   1.396       .  A
C509        H516   1.085       .  S
C510        C511   1.416       .  A
C511        C512   1.402       .  A
C511        C518   1.509       .  S
C512        C513   1.401       .  A
C512        H517   1.084       .  S
C513        C514   1.413       .  A
C514        C515   1.507       .  S
C515        H519   1.110       .  S
C515        H520   1.111       .  S
C515        H521   1.108       .  S
C518        H522   1.111       .  S
C518        H523   1.109       .  S
C518        H524   1.111       .  S
C525        C526   1.403       .  A
C525        C530   1.399       .  A
C525        H532   1.085       .  S
C526        C527   1.413       .  A
C527        C528   1.400       .  A
C527        C534   1.507       .  S
C528        C529   1.401       .  A
C528        H533   1.084       .  S
C529        C530   1.412       .  A
C530        C531   1.507       .  S
C531        H535   1.110       .  S
C531        H536   1.108       .  S
C531        H537   1.110       .  S
C534        H538   1.110       .  S
C534        H539   1.110       .  S
C534        H540   1.111       .  S
C541        C542   1.405       .  A
C541        C546   1.404       .  A
C541        H548   1.084       .  S
C542        C543   1.416       .  A
C543        C544   1.403       .  A
C543        C550   1.508       .  S
C544        C545   1.403       .  A
C544        H549   1.084       .  S
C545        C546   1.410       .  A
C546        C547   1.506       .  S
C547        H551   1.111       .  S
C547        H552   1.109       .  S
C547        H553   1.111       .  S
C550        H554   1.108       .  S
C550        H555   1.109       .  S
C550        H556   1.111       .  S
C557        C558   1.404       .  A
C557        C562   1.402       .  A
C557        H564   1.084       .  S
C558        C559   1.416       .  A
C559        C560   1.397       .  A
C559        C566   1.510       .  S
C560        C561   1.402       .  A
C560        H565   1.084       .  S
C561        C562   1.414       .  A
C562        C563   1.508       .  S
C563        H567   1.111       .  S
C563        H568   1.109       .  S
C563        H569   1.111       .  S
C566        H570   1.108       .  S
C566        H571   1.110       .  S
C566        H572   1.111       .  S
C573        C574   1.402       .  A
C573        C578   1.399       .  A
C573        H580   1.084       .  S
C574        C575   1.418       .  A
C575        C576   1.404       .  A
C575        C582   1.509       .  S
C576        C577   1.404       .  A
C576        H581   1.084       .  S
C577        C578   1.419       .  A
C578        C579   1.510       .  S
C579        H583   1.111       .  S
C579        H584   1.110       .  S
C579        H585   1.111       .  S
C582        H586   1.111       .  S
C582        H587   1.109       .  S
C582        H588   1.111       .  S
C589        C590   1.399       .  A
C589        C594   1.401       .  A
C589        H596   1.084       .  S
C590        C591   1.414       .  A
C591        C592   1.400       .  A
C591        C598   1.508       .  S
C592        C593   1.401       .  A
C592        H597   1.085       .  S
C593        C594   1.414       .  A
C594        C595   1.507       .  S
C595        H599   1.111       .  S
C595        H600   1.107       .  S
C595        H601   1.111       .  S
C598        H602   1.108       .  S
C598        H603   1.110       .  S
C598        H604   1.110       .  S
C605        C606   1.402       .  A
C605        C610   1.401       .  A
C605        H612   1.084       .  S
C606        C607   1.412       .  A
C607        C608   1.400       .  A
C607        C614   1.507       .  S
C608        C609   1.404       .  A
C608        H613   1.085       .  S
C609        C610   1.415       .  A
C610        C611   1.508       .  S
C611        H615   1.111       .  S
C611        H616   1.110       .  S
C611        H617   1.110       .  S
C614        H618   1.108       .  S
C614        H619   1.110       .  S
C614        H620   1.110       .  S
C621        C622   1.403       .  A
C621        C626   1.396       .  A
C621        H628   1.084       .  S
C622        C623   1.415       .  A
C623        C624   1.399       .  A
C623        C630   1.509       .  S
C624        C625   1.400       .  A
C624        H629   1.084       .  S
C625        C626   1.408       .  A
C626        C627   1.508       .  S
C627        H631   1.111       .  S
C627        H632   1.110       .  S
C627        H633   1.110       .  S
C630        H634   1.109       .  S
C630        H635   1.110       .  S
C630        H636   1.111       .  S
C637        C638   1.404       .  A
C637        C642   1.403       .  A
C637        H644   1.084       .  S
C638        C639   1.417       .  A
C639        C640   1.400       .  A
C639        C646   1.509       .  S
C640        C641   1.403       .  A
C640        H645   1.084       .  S
C641        C642   1.416       .  A
C642        C643   1.509       .  S
C643        H647   1.111       .  S
C643        H648   1.111       .  S
C643        H649   1.109       .  S
C646        H650   1.110       .  S
C646        H651   1.109       .  S
C646        H652   1.111       .  S
C653        C654   1.401       .  A
C653        C658   1.401       .  A
C653        H660   1.084       .  S
C654        C655   1.412       .  A
C655        C656   1.401       .  A
C655        C662   1.508       .  S
C656        C657   1.404       .  A
C656        H661   1.085       .  S
C657        C658   1.416       .  A
C658        C659   1.509       .  S
C659        H663   1.111       .  S
C659        H664   1.110       .  S
C659        H665   1.110       .  S
C662        H666   1.110       .  S
C662        H667   1.108       .  S
C662        H668   1.110       .  S
C669        C670   1.401       .  A
C669        C674   1.396       .  A
C669        H676   1.085       .  S
C670        C671   1.415       .  A
C671        C672   1.401       .  A
C671        C678   1.508       .  S
C672        C673   1.400       .  A
C672        H677   1.084       .  S
C673        C674   1.413       .  A
C674        C675   1.508       .  S
C675        H679   1.110       .  S
C675        H680   1.108       .  S
C675        H681   1.111       .  S
C678        H682   1.111       .  S
C678        H683   1.109       .  S
C678        H684   1.111       .  S
C685        C686   1.401       .  A
C685        C690   1.399       .  A
C685        H692   1.084       .  S
C686        C687   1.413       .  A
C687        C688   1.399       .  A
C687        C694   1.508       .  S
C688        C689   1.399       .  A
C688        H693   1.084       .  S
C689        C690   1.411       .  A
C690        C691   1.507       .  S
C691        H695   1.111       .  S
C691        H696   1.110       .  S
C691        H697   1.110       .  S
C694        H698   1.111       .  S
C694        H699   1.109       .  S
C694        H700   1.111       .  S
C701        C702   1.403       .  A
C701        C706   1.400       .  A
C701        H708   1.084       .  S
C702        C703   1.416       .  A
C703        C704   1.402       .  A
C703        C710   1.509       .  S
C704        C705   1.404       .  A
C704        H709   1.084       .  S
C705        C706   1.418       .  A
C706        C707   1.510       .  S
C707        H711   1.111       .  S
C707        H712   1.110       .  S
C707        H713   1.111       .  S
C710        H714   1.110       .  S
C710        H715   1.109       .  S
C710        H716   1.111       .  S
C717        C718   1.403       .  A
C717        C722   1.398       .  A
C717        H724   1.084       .  S
C718        C719   1.416       .  A
C719        C720   1.400       .  A
C719        C726   1.509       .  S
C720        C721   1.404       .  A
C720        H725   1.084       .  S
C721        C722   1.417       .  A
C722        C723   1.510       .  S
C723        H727   1.111       .  S
C723        H728   1.111       .  S
C723        H729   1.109       .  S
C726        H730   1.109       .  S
C726        H731   1.110       .  S
C726        H732   1.111       .  S
C733        C734   1.401       .  A
C733        C738   1.403       .  A
C733        H740   1.084       .  S
C734        C735   1.413       .  A
C735        C736   1.400       .  A
C735        C742   1.508       .  S
C736        C737   1.403       .  A
C736        H741   1.085       .  S
C737        C738   1.416       .  A
C738        C739   1.508       .  S
C739        H743   1.111       .  S
C739        H744   1.109       .  S
C739        H745   1.111       .  S
C742        H746   1.108       .  S
C742        H747   1.110       .  S
C742        H748   1.111       .  S
C749        C750   1.402       .  A
C749        C754   1.401       .  A
C749        H756   1.084       .  S
C750        C751   1.408       .  A
C751        C752   1.401       .  A
C751        C758   1.506       .  S
C752        C753   1.405       .  A
C752        H757   1.084       .  S
C753        C754   1.414       .  A
C754        C755   1.508       .  S
C755        H759   1.111       .  S
C755        H760   1.110       .  S
C755        H761   1.110       .  S
C758        H762   1.111       .  S
C758        H763   1.109       .  S
C758        H764   1.111       .  S
C765        C766   1.405       .  A
C765        C770   1.402       .  A
C765        H772   1.084       .  S
C766        C767   1.413       .  A
C767        C768   1.400       .  A
C767        C774   1.508       .  S
C768        C769   1.401       .  A
C768        H773   1.084       .  S
C769        C770   1.408       .  A
C770        C771   1.506       .  S
C771        H775   1.111       .  S
C771        H776   1.111       .  S
C771        H777   1.110       .  S
C774        H778   1.109       .  S
C774        H779   1.111       .  S
C774        H780   1.111       .  S
C781        C782   1.404       .  A
C781        C786   1.399       .  A
C781        H788   1.084       .  S
C782        C783   1.420       .  A
C783        C784   1.403       .  A
C783        C790   1.509       .  S
C784        C785   1.405       .  A
C784        H789   1.084       .  S
C785        C786   1.419       .  A
C786        C787   1.510       .  S
C787        H791   1.111       .  S
C787        H792   1.110       .  S
C787        H793   1.110       .  S
C790        H794   1.110       .  S
C790        H795   1.110       .  S
C790        H796   1.111       .  S
C797        C798   1.404       .  A
C797        C802   1.402       .  A
C797        H804   1.084       .  S
C798        C799   1.414       .  A
C799        C800   1.404       .  A
C799        C806   1.508       .  S
C800        C801   1.405       .  A
C800        H805   1.084       .  S
C801        C802   1.417       .  A
C802        C803   1.509       .  S
C803        H807   1.111       .  S
C803        H808   1.110       .  S
C803        H809   1.111       .  S
C806        H810   1.111       .  S
C806        H811   1.109       .  S
C806        H812   1.111       .  S
C813        C814   1.403       .  A
C813        C818   1.398       .  A
C813        H820   1.085       .  S
C814        C815   1.411       .  A
C815        C816   1.398       .  A
C815        C822   1.508       .  S
C816        C817   1.401       .  A
C816        H821   1.084       .  S
C817        C818   1.410       .  A
C818        C819   1.507       .  S
C819        H823   1.110       .  S
C819        H824   1.110       .  S
C819        H825   1.109       .  S
C822        H826   1.110       .  S
C822        H827   1.110       .  S
C822        H828   1.111       .  S
C829        C830   1.404       .  A
C829        C834   1.402       .  A
C829        H836   1.084       .  S
C830        C831   1.416       .  A
C831        C832   1.400       .  A
C831        C838   1.508       .  S
C832        C833   1.400       .  A
C832        H837   1.084       .  S
C833        C834   1.409       .  A
C834        C835   1.506       .  S
C835        H839   1.111       .  S
C835        H840   1.110       .  S
C835        H841   1.111       .  S
C838        H842   1.109       .  S
C838        H843   1.109       .  S
C838        H844   1.111       .  S
C845        C846   1.406       .  A
C845        C850   1.403       .  A
C845        H852   1.084       .  S
C846        C847   1.416       .  A
C847        C848   1.406       .  A
C847        C854   1.507       .  S
C848        C849   1.403       .  A
C848        H853   1.084       .  S
C849        C850   1.410       .  A
C850        C851   1.507       .  S
C851        H855   1.111       .  S
C851        H856   1.109       .  S
C851        H857   1.110       .  S
C854        H858   1.109       .  S
C854        H859   1.109       .  S
C854        H860   1.111       .  S
C861        C862   1.404       .  A
C861        C866   1.397       .  A
C861        H868   1.084       .  S
C862        C863   1.414       .  A
C863        C864   1.400       .  A
C863        C870   1.509       .  S
C864        C865   1.404       .  A
C864        H869   1.084       .  S
C865        C866   1.414       .  A
C866        C867   1.509       .  S
C867        H871   1.111       .  S
C867        H872   1.110       .  S
C867        H873   1.110       .  S
C870        H874   1.111       .  S
C870        H875   1.108       .  S
C870        H876   1.111       .  S
C877        C878   1.404       .  A
C877        C882   1.399       .  A
C877        H884   1.084       .  S
C878        C879   1.415       .  A
C879        C880   1.399       .  A
C879        C886   1.509       .  S
C880        C881   1.405       .  A
C880        H885   1.084       .  S
C881        C882   1.417       .  A
C882        C883   1.509       .  S
C883        H887   1.111       .  S
C883        H888   1.109       .  S
C883        H889   1.110       .  S
C886        H890   1.110       .  S
C886        H891   1.110       .  S
C886        H892   1.111       .  S
C893        C894   1.404       .  A
C893        C898   1.399       .  A
C893        H900   1.084       .  S
C894        C895   1.419       .  A
C895        C896   1.400       .  A
C895        C902   1.510       .  S
C896        C897   1.405       .  A
C896        H901   1.084       .  S
C897        C898   1.419       .  A
C898        C899   1.510       .  S
C899        H903   1.111       .  S
C899        H904   1.110       .  S
C899        H905   1.110       .  S
C902        H906   1.110       .  S
C902        H907   1.109       .  S
C902        H908   1.111       .  S
C909        C910   1.402       .  A
C909        C914   1.400       .  A
C909        H916   1.084       .  S
C910        C911   1.417       .  A
C911        C912   1.400       .  A
C911        C918   1.510       .  S
C912        C913   1.398       .  A
C912        H917   1.084       .  S
C913        C914   1.411       .  A
C914        C915   1.507       .  S
C915        H919   1.111       .  S
C915        H920   1.110       .  S
C915        H921   1.110       .  S
C918        H922   1.109       .  S
C918        H923   1.111       .  S
C918        H924   1.111       .  S
C925        C926   1.404       .  A
C925        C930   1.398       .  A
C925        H932   1.085       .  S
C926        C927   1.416       .  A
C927        C928   1.397       .  A
C927        C934   1.510       .  S
C928        C929   1.400       .  A
C928        H933   1.084       .  S
C929        C930   1.412       .  A
C930        C931   1.508       .  S
C931        H935   1.110       .  S
C931        H936   1.110       .  S
C931        H937   1.108       .  S
C934        H938   1.109       .  S
C934        H939   1.110       .  S
C934        H940   1.111       .  S
C941        C942   1.404       .  A
C941        C946   1.400       .  A
C941        H948   1.084       .  S
C942        C943   1.413       .  A
C943        C944   1.402       .  A
C943        C950   1.508       .  S
C944        C945   1.402       .  A
C944        H949   1.084       .  S
C945        C946   1.408       .  A
C946        C947   1.507       .  S
C947        H951   1.111       .  S
C947        H952   1.111       .  S
C947        H953   1.110       .  S
C950        H954   1.110       .  S
C950        H955   1.110       .  S
C950        H956   1.111       .  S
