geometry optimzed in LAMMPS
_audit_creation_date              2020-12-01 
_audit_creation_method            'lammps2cif' 
_symmetry_space_group_name_H-M    'P1' 
_symmetry_Int_Tables_number       1 
_symmetry_cell_setting            triclinic 
loop_ 
_symmetry_equiv_pos_as_xyz 
  x,y,z 
_cell_length_a                    36.50714879 
_cell_length_b                    36.69217106888965 
_cell_length_c                    38.220488601602995 
_cell_angle_alpha                 92.40946874535135 
_cell_angle_beta                  90.3527861526972 
_cell_angle_gamma                 89.85487050868981 
loop_ 
_atom_site_label 
_atom_site_type_symbol 
_atom_site_fract_x 
_atom_site_fract_y 
_atom_site_fract_z 
_atom_site_charge 
C1          C  0.20246935  0.20763939  0.21897693     0.86600
C2          C  0.22667022  0.18393227  0.24178721    -0.53600
C3          C  0.24873016  0.20282376  0.26521558     0.09500
C4          C  0.24375504  0.24482268  0.26404013     0.20500
C5          C  0.18084418  0.23245818  0.24509168    -0.54300
C6          C  0.20210629  0.25186730  0.26879809     0.09600
C7          C  0.22904932  0.23444775  0.20230730    -0.53900
C8          C  0.25087063  0.25370980  0.22552344     0.10200
H9          H  0.22606283  0.15434938  0.23949501     0.14700
H10         H  0.26121089  0.26070869  0.28301601     0.00500
H11         H  0.15149236  0.23675825  0.24355058     0.15000
H12         H  0.23013305  0.23865810  0.17439264     0.14800
C13         C  0.09326579  0.45710095  0.42639924     0.30100
C14         C  0.09008017  0.52194966  0.46650745     0.30100
C15         C  0.10630314  0.49170931  0.40906893    -0.06100
C16         C  0.05418415  0.46911414  0.43903562    -0.06900
C17         C  0.11447161  0.45863245  0.46133359    -0.06700
C18         C  0.10548331  0.52445423  0.42903417    -0.06100
C19         C  0.05307776  0.50217654  0.45948401    -0.06800
C20         C  0.11426211  0.49141136  0.48064298    -0.06700
C21         C  0.12154975  0.55013082  0.40847755    -0.32100
N22         N  0.12999698  0.53429935  0.37688155     0.14400
C23         C  0.12094790  0.49860193  0.37695916    -0.32100
H24         H  0.12439625  0.47914236  0.35515647     0.16300
C25         C  0.01697849  0.50915815  0.46808196    -0.31100
N26         N  0.99584835  0.48176189  0.45394913     0.13100
C27         C  0.01807424  0.45705129  0.43692296    -0.31100
C28         C  0.13722564  0.48709329  0.50904399    -0.31400
N29         N  0.14974233  0.45222834  0.50831213     0.13600
H30         H  0.14418846  0.50762980  0.52908009     0.16200
C31         C  0.13558136  0.43455696  0.47945593    -0.31400
H32         H  0.13942435  0.40592337  0.47252711     0.16200
H33         H  0.00816858  0.43190531  0.42498930     0.16200
H34         H  0.12849353  0.57799509  0.41556242     0.16300
H35         H  0.00697745  0.53274194  0.48305558     0.16200
C36         C  0.21126545  0.75726585  0.67969125     0.86600
C37         C  0.23508437  0.77790144  0.65416222    -0.53600
C38         C  0.25287735  0.75608068  0.62992958     0.09500
C39         C  0.24515613  0.71486244  0.63327355     0.20500
C40         C  0.18556477  0.73381693  0.65611084    -0.54300
C41         C  0.20258728  0.71141591  0.63150654     0.09600
C42         C  0.23745633  0.72920064  0.69543651    -0.53900
C43         C  0.25510956  0.70706457  0.67155281     0.10200
H44         H  0.23829931  0.80734976  0.65565327     0.14700
H45         H  0.26034987  0.69697832  0.61430367     0.00500
H46         H  0.15603508  0.73555871  0.65866733     0.15000
H47         H  0.24229300  0.72592806  0.72301334     0.14800
C48         C  0.44683172  0.09210724  0.41904800     0.30100
C49         C  0.50514664  0.08613246  0.46484619     0.30100
C50         C  0.44450627  0.11388137  0.45403574    -0.06100
C51         C  0.45427020  0.05257286  0.43217935    -0.06900
C52         C  0.48501832  0.10215461  0.40513550    -0.06700
C53         C  0.47369698  0.11092573  0.47674285    -0.06100
C54         C  0.48453153  0.04999921  0.45558543    -0.06800
C55         C  0.51420601  0.09891210  0.42816345    -0.06700
C56         C  0.46424975  0.12852551  0.50783201    -0.32100
N57         N  0.43006760  0.14245302  0.50445407     0.14400
C58         C  0.41766121  0.13351309  0.47166364    -0.32100
H59         H  0.39089758  0.14021515  0.46144306     0.16300
C60         C  0.48985463  0.01353856  0.46146461    -0.31100
N61         N  0.46349405  0.99386219  0.44442588     0.13100
C62         C  0.44195532  0.01679858  0.42599605    -0.31100
C63         C  0.54500027  0.11138577  0.41181028    -0.31400
N64         N  0.53548566  0.12294206  0.37968845     0.13600
H65         H  0.57188690  0.11417773  0.42361313     0.16200
C66         C  0.49888979  0.11695957  0.37525386    -0.31400
H67         H  0.48313726  0.12406031  0.35244890     0.16200
H68         H  0.42063379  0.00760657  0.40806389     0.16200
H69         H  0.48036482  0.12956205  0.53172678     0.16300
H70         H  0.51245091  0.00125573  0.47497499     0.16200
C71         C  0.75620624  0.25154270  0.18013430     0.86600
C72         C  0.77801701  0.27483664  0.20751793    -0.53600
C73         C  0.75726029  0.29734109  0.22900438     0.09500
C74         C  0.71568083  0.29515645  0.22008530     0.20500
C75         C  0.72737894  0.23186300  0.20147639    -0.54300
C76         C  0.70635906  0.25434907  0.22249153     0.09600
C77         C  0.73460452  0.27998983  0.16010330    -0.53900
C78         C  0.71253136  0.30211511  0.18035096     0.10200
H79         H  0.80759306  0.27476215  0.20948877     0.14700
H80         H  0.69784952  0.31296194  0.23686330     0.00500
H81         H  0.72428342  0.20239445  0.20047127     0.15000
H82         H  0.73502650  0.28136826  0.13178406     0.14800
C83         C  0.22771705  0.24535012  0.73665372     0.86600
C84         C  0.21031798  0.27363219  0.71263490    -0.53600
C85         C  0.23518116  0.29696176  0.69919082     0.09500
C86         C  0.27473540  0.29024054  0.71077513     0.20500
C87         C  0.25715147  0.22675375  0.71368532    -0.54300
C88         C  0.28181072  0.25007612  0.70013155     0.09600
C89         C  0.24879062  0.26868547  0.76444946    -0.53900
C90         C  0.27382975  0.29170750  0.75095471     0.10200
H91         H  0.18158505  0.27537253  0.70581717     0.14700
H92         H  0.29449093  0.30945510  0.69960341     0.00500
H93         H  0.25686220  0.19768671  0.70706707     0.15000
H94         H  0.24499790  0.26631282  0.79242251     0.14800
C95         C  0.86286145  0.51243764  0.47783744     0.30100
C96         C  0.86290716  0.46363136  0.42096066     0.30100
C97         C  0.85802962  0.52888173  0.44173948    -0.06100
C98         C  0.89892924  0.49056148  0.47246495    -0.06900
C99         C  0.83402175  0.48221313  0.47739609    -0.06700
C100        C  0.85649060  0.50431064  0.41298504    -0.06100
C101        C  0.89874231  0.46527217  0.44334208    -0.06800
C102        C  0.83316843  0.45798739  0.44864660    -0.06700
C103        C  0.84272128  0.52398761  0.38567255    -0.32100
N104        N  0.84000124  0.55982937  0.39586605     0.14400
C105        C  0.84938799  0.56293864  0.43026478    -0.32100
H106        H  0.84851215  0.58788531  0.44633982     0.16300
C107        C  0.93501774  0.45910121  0.43429515    -0.31100
N108        N  0.95711051  0.47922821  0.45635235     0.13100
C109        C  0.93543691  0.49966470  0.47835445    -0.31100
C110        C  0.81007086  0.42986029  0.45729637    -0.31400
N111        N  0.79902222  0.43555487  0.49088853     0.13600
H112        H  0.80459548  0.40508081  0.44191480     0.16200
C113        C  0.81371102  0.46731167  0.50342034    -0.31400
H114        H  0.81262078  0.47708163  0.53052680     0.16200
H115        H  0.94524693  0.52176981  0.49544428     0.16200
H116        H  0.83176424  0.51275212  0.36131774     0.16300
H117        H  0.94429711  0.44393965  0.41111585     0.16200
C118        C  0.74287545  0.80059546  0.19694554     0.86600
C119        C  0.71437633  0.82168351  0.21980661    -0.53600
C120        C  0.69258653  0.79968482  0.23879976     0.09500
C121        C  0.70052254  0.75874833  0.23282406     0.20500
C122        C  0.76341245  0.77690132  0.22278216    -0.54300
C123        C  0.74162579  0.75477752  0.24172700     0.09600
C124        C  0.71950236  0.77358550  0.17442854    -0.53900
C125        C  0.69799374  0.75141312  0.19309154     0.10200
H126        H  0.71063100  0.85090560  0.22126572     0.14700
H127        H  0.68197132  0.74082788  0.24709310     0.00500
H128        H  0.79295641  0.77821390  0.22584890     0.15000
H129        H  0.72045635  0.77150989  0.14600788     0.14800
C130        C  0.74065070  0.18470556  0.68285577     0.86600
C131        C  0.71607232  0.15744404  0.66226461    -0.53600
C132        C  0.68866458  0.17319088  0.64379869     0.09500
C133        C  0.68859516  0.21514063  0.64700032     0.20500
C134        C  0.75450847  0.21078899  0.65504842    -0.54300
C135        C  0.72722189  0.22668918  0.63617586     0.09600
C136        C  0.71434539  0.20882778  0.70518533    -0.53900
C137        C  0.68717496  0.22451575  0.68638070     0.10200
H138        H  0.71988435  0.12808653  0.66254923     0.14700
H139        H  0.66643165  0.22800161  0.63180397     0.00500
H140        H  0.78275493  0.21879019  0.65218527     0.15000
H141        H  0.71780717  0.21421470  0.73317502     0.14800
C142        C  0.44539940  0.85769643  0.46821035     0.30100
C143        C  0.50748266  0.86320648  0.42764381     0.30100
C144        C  0.44556239  0.83620864  0.43275859    -0.06100
C145        C  0.45453667  0.89713973  0.45607038    -0.06900
C146        C  0.48194666  0.84587899  0.48486149    -0.06700
C147        C  0.47692627  0.83854358  0.41287752    -0.06100
C148        C  0.48679976  0.89933156  0.43598500    -0.06800
C149        C  0.51343804  0.84939243  0.46489502    -0.06700
C150        C  0.47060490  0.81966196  0.38154701    -0.32100
N151        N  0.43605489  0.80617262  0.38168243     0.14400
C152        C  0.42035209  0.81657606  0.41266608    -0.32100
H153        H  0.39206023  0.81186234  0.41940367     0.16300
C154        C  0.49239502  0.93540350  0.42902049    -0.31100
N155        N  0.46373029  0.95530584  0.44154265     0.13100
C156        C  0.44045776  0.93271174  0.45800314    -0.31100
C157        C  0.54256241  0.83952219  0.48588176    -0.31400
N158        N  0.52948234  0.82786577  0.51662697     0.13600
H159        H  0.57134900  0.84030978  0.47950569     0.16200
C160        C  0.49247562  0.83160775  0.51633553    -0.31400
H161        H  0.47458229  0.82442689  0.53743401     0.16200
H162        H  0.41561914  0.94210117  0.47050177     0.16200
H163        H  0.48932425  0.81701982  0.35973447     0.16300
H164        H  0.51614861  0.94672107  0.41669335     0.16200
C165        C  0.22355564  0.73366397  0.14523064     0.86600
C166        C  0.20214343  0.70765433  0.16820062    -0.53600
C167        C  0.22333722  0.68144596  0.18273647     0.09500
C168        C  0.26376833  0.68325739  0.17279248     0.20500
C169        C  0.25475097  0.74848640  0.16934944    -0.54300
C170        C  0.27531037  0.72199601  0.18384214     0.09600
C171        C  0.24357116  0.70859973  0.11809323    -0.53900
C172        C  0.26384840  0.68177769  0.13266226     0.10200
H173        H  0.17319908  0.71103574  0.17386218     0.14700
H174        H  0.28112640  0.66206180  0.18462515     0.00500
H175        H  0.26057973  0.77691960  0.17551361     0.15000
H176        H  0.24140156  0.71134927  0.08998059     0.14800
C177        C  0.75338083  0.71588826  0.72350397     0.86600
C178        C  0.77590023  0.68814387  0.70156601    -0.53600
C179        C  0.75576823  0.66380462  0.68148157     0.09500
C180        C  0.71385113  0.66786333  0.68731473     0.20500
C181        C  0.72650636  0.73259272  0.69751406    -0.54300
C182        C  0.70573835  0.70779184  0.67878649     0.09600
C183        C  0.72901535  0.69202451  0.74610483    -0.53900
C184        C  0.70805040  0.66707911  0.72750525     0.10200
H185        H  0.80561180  0.68897053  0.70060084     0.14700
H186        H  0.69694110  0.64800032  0.67163166     0.00500
H187        H  0.72380315  0.76179133  0.69447766     0.15000
H188        H  0.72757387  0.69410933  0.77434736     0.14800
C189        C  0.51316153  0.45201593  0.06688221     0.30100
C190        C  0.45859836  0.50368166  0.06517426     0.30100
C191        C  0.51975492  0.48764179  0.08881347    -0.06100
C192        C  0.50485390  0.46728633  0.02972708    -0.06900
C193        C  0.47447529  0.44002063  0.07812654    -0.06700
C194        C  0.49205700  0.51379778  0.08801851    -0.06100
C195        C  0.47721125  0.49435858  0.02966236    -0.06800
C196        C  0.44740388  0.46639085  0.07785230    -0.06700
C197        C  0.50872858  0.54720649  0.09420080    -0.32100
N198        N  0.54491946  0.54246402  0.10037672     0.14400
C199        C  0.55209694  0.50631375  0.09590085    -0.32100
H200        H  0.57929678  0.49459787  0.09433349     0.16300
C201        C  0.47397966  0.50648277  0.99610961    -0.31100
N202        N  0.49709871  0.48696312  0.97509325     0.13100
C203        C  0.51537564  0.46246565  0.99469617    -0.31100
C204        C  0.41681403  0.45241202  0.09359333    -0.31400
N205        N  0.42420350  0.41777436  0.10281876     0.13600
H206        H  0.39149702  0.46690112  0.09910909     0.16200
C207        C  0.45921303  0.40981993  0.09310869    -0.31400
H208        H  0.47331193  0.38471466  0.09863891     0.16200
H209        H  0.53333288  0.44173590  0.98357685     0.16200
H210        H  0.49554548  0.57344706  0.09203773     0.16300
H211        H  0.45565606  0.52737427  0.98720316     0.16200
C212        C  0.51370905  0.51240563  0.84353717     0.30100
C213        C  0.45576421  0.46479860  0.84969343     0.30100
C214        C  0.51759621  0.47432141  0.82528641    -0.06100
C215        C  0.50442038  0.50165916  0.88204372    -0.06900
C216        C  0.47584361  0.52540814  0.83024212    -0.06700
C217        C  0.48817462  0.45073616  0.82741285    -0.06100
C218        C  0.47470843  0.47724173  0.88412576    -0.06800
C219        C  0.44694749  0.50097630  0.83231131    -0.06700
C220        C  0.49744640  0.41909956  0.80853570    -0.32100
N221        N  0.53217577  0.42227120  0.79682490     0.14400
C222        C  0.54470898  0.45594425  0.80671036    -0.32100
H223        H  0.57172547  0.46618480  0.80108374     0.16300
C224        C  0.46996585  0.46871539  0.91850174    -0.31100
N225        N  0.49559759  0.48663426  0.93810459     0.13100
C226        C  0.51629872  0.50720444  0.91688328    -0.31100
C227        C  0.41917835  0.51383267  0.81125463    -0.31400
N228        N  0.42919371  0.54631069  0.79856418     0.13600
H229        H  0.39388798  0.49999915  0.80454340     0.16200
C230        C  0.46371093  0.55372845  0.81017227    -0.31400
H231        H  0.47966106  0.57693356  0.80268116     0.16200
H232        H  0.53767460  0.52489184  0.92691448     0.16200
H233        H  0.48086376  0.39494384  0.80423721     0.16300
H234        H  0.44928642  0.45095874  0.92861564     0.16200
N235        N  0.02614476  0.05886881  0.98261405    -0.06000
N236        N  0.03068148  0.08155265  0.01009813    -0.58100
N237        N  0.05416540  0.03246819  0.90212025    -0.05700
N238        N  0.07995351  0.03984867  0.87933677    -0.60200
N239        N  0.02851556  0.05764798  0.90213383    -0.05300
N240        N  0.03613873  0.08241880  0.87940804    -0.58100
N241        N  0.05123917  0.03305095  0.98258138    -0.05000
N242        N  0.07318240  0.03761208  0.00997580    -0.60600
C243        C  0.06011039  0.06793523  0.02706349     0.96200
C244        C  0.06821395  0.07114659  0.86526037     0.96000
N245        N  0.02677878  0.92113517  0.89832420    -0.06200
N246        N  0.03270569  0.89720505  0.87213565    -0.58700
N247        N  0.05116598  0.94749659  0.97979559    -0.04300
N248        N  0.07531547  0.94076422  0.00452164    -0.59900
N249        N  0.02518088  0.92277789  0.97893390    -0.06200
N250        N  0.03105733  0.89878425  0.00311906    -0.59000
N251        N  0.05250638  0.94621291  0.89947958    -0.03900
N252        N  0.07648516  0.93975123  0.87426921    -0.60000
Mn253      Mn  0.05342700  0.98980824  0.94091961     1.18400
C254        C  0.06375869  0.90922059  0.85720758     0.98300
C255        C  0.06229636  0.91046850  0.01914309     0.98900
N256        N  0.94240594  0.05826977  0.89813119    -0.06200
N257        N  0.93806405  0.07969742  0.87141634    -0.62500
N258        N  0.91362124  0.03745833  0.97779850    -0.05000
N259        N  0.88827373  0.04684856  0.00119712    -0.63200
N260        N  0.93995200  0.06183583  0.97860858    -0.05700
N261        N  0.93321587  0.08802661  0.00236029    -0.62800
N262        N  0.91712853  0.03275691  0.89719946    -0.04600
N263        N  0.89543564  0.03592289  0.86986569    -0.63500
Mn264      Mn  0.98430895  0.06023237  0.94038740     1.10700
C265        C  0.90882775  0.06509602  0.85384809     0.99500
C266        C  0.90102012  0.07846883  0.01654984     0.99600
N267        N  0.93900934  0.92522153  0.97760254    -0.05700
N268        N  0.93302154  0.90395205  0.00402720    -0.61100
N269        N  0.91517571  0.94723017  0.89660324    -0.05100
N270        N  0.89131654  0.93955187  0.87119379    -0.57800
N271        N  0.94082328  0.92204795  0.89689794    -0.06400
N272        N  0.93514989  0.89703744  0.87167923    -0.60700
N273        N  0.91406698  0.95114385  0.97699881    -0.05400
N274        N  0.89066345  0.94805615  0.00274541    -0.57900
Mn275      Mn  0.98287417  0.92161102  0.93795628     1.20200
Mn276      Mn  0.91379987  0.99212577  0.93718744     1.10100
Cl277      Cl  0.98359357  0.99093674  0.93912607    -0.85800
C278        C  0.90280152  0.91865667  0.01952795     0.96500
C279        C  0.90423447  0.90821216  0.85564728     0.96300
C280        C  0.82267050  0.79419364  0.73817899    -0.27500
C281        C  0.82060520  0.80157847  0.77428995     0.02100
C282        C  0.79710782  0.78076506  0.79439788     0.30200
C283        C  0.77580796  0.75306045  0.77841428    -0.19300
C284        C  0.77734804  0.74531599  0.74195460    -0.28700
C285        C  0.80125752  0.76658692  0.72195841     0.44200
C286        C  0.84273677  0.83117775  0.79114807     0.05400
O287        O  0.79455308  0.78751704  0.82987910    -0.57200
H288        H  0.75794983  0.73849928  0.79518819     0.18400
O289        O  0.80303497  0.76129793  0.68624228    -0.63900
H290        H  0.84054785  0.81026940  0.72239922     0.16800
C291        C  0.88093968  0.82779195  0.79438508     0.29100
C292        C  0.90077190  0.85394695  0.81431719    -0.24800
C293        C  0.88304276  0.88398304  0.83097516    -0.24100
C294        C  0.84495170  0.88828115  0.82603064     0.40500
C295        C  0.82514450  0.86189613  0.80632619    -0.26500
O296        O  0.89876455  0.79781914  0.78010049    -0.58400
H297        H  0.93001956  0.85012169  0.81756248     0.16100
O298        O  0.82650467  0.91732145  0.84134027    -0.59900
H299        H  0.79572205  0.86484763  0.80372976     0.14600
H300        H  0.82742074  0.75021273  0.68155481     0.46500
H301        H  0.90694358  0.80514243  0.75672229     0.41800
H302        H  0.81670011  0.90826757  0.86351512     0.45300
H303        H  0.81485062  0.77341249  0.84018103     0.36800
C304        C  0.64983338  0.58663158  0.75474436    -0.27500
C305        C  0.62796230  0.60280203  0.78135614     0.02100
C306        C  0.63241934  0.64023348  0.78989420     0.30200
C307        C  0.65819505  0.66071599  0.77199798    -0.19300
C308        C  0.68006627  0.64457177  0.74525850    -0.28700
C309        C  0.67570619  0.60709840  0.73693192     0.44200
C310        C  0.59927550  0.58077115  0.79845734     0.05400
O311        O  0.61128443  0.65724930  0.81526494    -0.57200
H312        H  0.66075054  0.68956263  0.77879727     0.18400
O313        O  0.69722401  0.58986404  0.71210063    -0.63900
H314        H  0.64698999  0.55782052  0.74789491     0.16800
C315        C  0.57257660  0.56245751  0.77798754     0.29100
C316        C  0.54626018  0.54119100  0.79374515    -0.24800
C317        C  0.54470348  0.53737176  0.83049450    -0.24100
C318        C  0.57199581  0.55562048  0.85096627     0.40500
C319        C  0.59852137  0.57739423  0.83499369    -0.26500
O320        O  0.57179366  0.56519457  0.74229359    -0.58400
H321        H  0.52655441  0.52720315  0.77667749     0.16100
O322        O  0.57407011  0.55209111  0.88625376    -0.59900
H323        H  0.61920231  0.59100204  0.85120795     0.14600
H324        H  0.71977297  0.58282621  0.72476967     0.46500
H325        H  0.55819691  0.58806972  0.73817858     0.41800
H326        H  0.59197365  0.53210969  0.88953080     0.45300
H327        H  0.58825981  0.66392090  0.80318974     0.36800
C328        C  0.09044833  0.83596732  0.07967986    -0.27500
C329        C  0.12857560  0.84042541  0.08072388     0.02100
C330        C  0.14455197  0.86937445  0.06329852     0.30200
C331        C  0.12246722  0.89279102  0.04432760    -0.19300
C332        C  0.08437762  0.88771139  0.04231840    -0.28700
C333        C  0.06832476  0.85947651  0.06084259     0.44200
C334        C  0.15160659  0.81359709  0.09848075     0.05400
O335        O  0.18190569  0.87339598  0.06268271    -0.57200
H336        H  0.13543997  0.91412559  0.03010082     0.18400
O337        O  0.03115077  0.85418682  0.06024863    -0.63900
H338        H  0.07786267  0.81391920  0.09324289     0.16800
C339        C  0.17524891  0.82445160  0.12602585     0.29100
C340        C  0.19831239  0.79892686  0.14105027    -0.24800
C341        C  0.19832896  0.76193078  0.12914208    -0.24100
C342        C  0.17251702  0.75094142  0.10300629     0.40500
C343        C  0.14995298  0.77671778  0.08760478    -0.26500
O344        O  0.17571099  0.85996144  0.13878740    -0.58400
H345        H  0.21507429  0.80871841  0.16270248     0.16100
O346        O  0.16947478  0.71504600  0.09186096    -0.59900
H347        H  0.13126029  0.76789699  0.06681860     0.14600
H348        H  0.02171335  0.86918963  0.08043564     0.46500
H349        H  0.15736275  0.86108799  0.15783418     0.41800
H350        H  0.14963609  0.70499534  0.10619065     0.45300
H351        H  0.18715317  0.89541687  0.07780537     0.36800
C352        C  0.30733313  0.59138646  0.10727025    -0.27500
C353        C  0.33430332  0.60221927  0.08402464     0.02100
C354        C  0.33467536  0.63828371  0.07297074     0.30200
C355        C  0.30943791  0.66370247  0.08686962    -0.19300
C356        C  0.28440444  0.65352108  0.11235496    -0.28700
C357        C  0.28236249  0.61673615  0.12136532     0.44200
C358        C  0.36598641  0.57809719  0.07763445     0.05400
O359        O  0.36108075  0.64940476  0.05041380    -0.57200
H360        H  0.31124094  0.69189882  0.07971285     0.18400
O361        O  0.25735179  0.60567023  0.14534862    -0.63900
H362        H  0.30712731  0.56371314  0.11613388     0.16800
C363        C  0.39329262  0.57657673  0.10338620     0.29100
C364        C  0.42279724  0.55292774  0.09862225    -0.24800
C365        C  0.42687681  0.53106006  0.06758227    -0.24100
C366        C  0.39778430  0.53079949  0.04285027     0.40500
C367        C  0.36798870  0.55491211  0.04769566    -0.26500
O368        O  0.39046233  0.59698691  0.13419086    -0.58400
H369        H  0.44176670  0.55096798  0.12028557     0.16100
O370        O  0.39662128  0.50497027  0.01580787    -0.59900
H371        H  0.34583746  0.55462332  0.02869296     0.14600
H372        H  0.23431154  0.60168408  0.13192138     0.46500
H373        H  0.40111259  0.62105700  0.12923026     0.41800
H374        H  0.39209615  0.51837364  0.99417570     0.45300
H375        H  0.38119715  0.65914458  0.06562345     0.36800
C376        C  0.61467159  0.73708849  0.64062876    -0.27500
C377        C  0.62582467  0.75303722  0.60959588     0.02100
C378        C  0.66309863  0.75072884  0.60006568     0.30200
C379        C  0.68865532  0.73454002  0.62213982    -0.19300
C380        C  0.67760511  0.71961875  0.65352576    -0.28700
C381        C  0.64025876  0.72032134  0.66242406     0.44200
C382        C  0.59899544  0.77312726  0.58784547     0.05400
O383        O  0.67496448  0.76475906  0.56943712    -0.57200
H384        H  0.71736486  0.73425368  0.61508864     0.18400
O385        O  0.62888073  0.70687000  0.69347296    -0.63900
H386        H  0.58626323  0.73871051  0.64857426     0.16800
C387        C  0.56628630  0.75666663  0.57533001     0.29100
C388        C  0.54261046  0.77561716  0.55331434    -0.24800
C389        C  0.55128772  0.81083636  0.54297701    -0.24100
C390        C  0.58324523  0.82774356  0.55642515     0.40500
C391        C  0.60670051  0.80902780  0.57868453    -0.26500
O392        O  0.55789452  0.72158643  0.58333247    -0.58400
H393        H  0.51823499  0.76218298  0.54295550     0.16100
O394        O  0.59198221  0.86246532  0.54756475    -0.59900
H395        H  0.63127800  0.82249190  0.58855600     0.14600
H396        H  0.62435863  0.68055908  0.68828732     0.46500
H397        H  0.57008655  0.70592380  0.56507537     0.41800
H398        H  0.57946079  0.87870031  0.56512841     0.45300
H399        H  0.66944466  0.74567220  0.55102631     0.36800
C400        C  0.31471413  0.75499675  0.27079983    -0.27500
C401        C  0.35189927  0.74634407  0.26676502     0.02100
C402        C  0.36390478  0.72851317  0.23552012     0.30200
C403        C  0.33862200  0.71993692  0.20862247    -0.19300
C404        C  0.30174103  0.72996873  0.21235462    -0.28700
C405        C  0.28971381  0.74698354  0.24388006     0.44200
C406        C  0.37754664  0.75776682  0.29514233     0.05400
O407        O  0.39996503  0.71865847  0.23152611    -0.57200
H408        H  0.34787364  0.70612261  0.18464848     0.18400
O409        O  0.25351605  0.75597584  0.24854127    -0.63900
H410        H  0.30516415  0.76866880  0.29473696     0.16800
C411        C  0.40409013  0.78466250  0.28984244     0.29100
C412        C  0.42414640  0.79941607  0.31830741    -0.24800
C413        C  0.41781697  0.78801875  0.35238716    -0.24100
C414        C  0.39238947  0.75988378  0.35736768     0.40500
C415        C  0.37228642  0.74519218  0.32890010    -0.26500
O416        O  0.40925996  0.79805897  0.25727461    -0.58400
H417        H  0.44342308  0.82111222  0.31394806     0.16100
O418        O  0.38658638  0.74692784  0.38999339    -0.59900
H419        H  0.35185965  0.72451655  0.33326927     0.14600
H420        H  0.24218596  0.73422493  0.25854181     0.46500
H421        H  0.39267729  0.81944872  0.25623336     0.41800
H422        H  0.40605363  0.72843507  0.39317773     0.45300
H423        H  0.41000106  0.73536747  0.21427223     0.36800
C424        C  0.84681179  0.07594438  0.77542528    -0.27500
C425        C  0.84671664  0.11387676  0.77262804     0.02100
C426        C  0.86959984  0.13557211  0.79470225     0.30200
C427        C  0.89124297  0.11926966  0.82014643    -0.19300
C428        C  0.89015709  0.08142394  0.82393906    -0.28700
C429        C  0.86850503  0.05964144  0.80064781     0.44200
C430        C  0.82055366  0.13069021  0.74847247     0.05400
O431        O  0.86879845  0.17286844  0.79333016    -0.57200
H432        H  0.90748638  0.13643313  0.83798132     0.18400
O433        O  0.86765603  0.02242671  0.80282793    -0.63900
H434        H  0.82944693  0.05900613  0.75839608     0.16800
C435        C  0.83263568  0.15055643  0.72020579     0.29100
C436        C  0.80714652  0.16748298  0.69861823    -0.24800
C437        C  0.76916800  0.16538232  0.70506489    -0.24100
C438        C  0.75740179  0.14375084  0.73268610     0.40500
C439        C  0.78295548  0.12694319  0.75414528    -0.26500
O440        O  0.86929395  0.15234960  0.71272929    -0.58400
H441        H  0.81783955  0.18162067  0.67678288     0.16100
O442        O  0.72081208  0.13959456  0.73948622    -0.59900
H443        H  0.77335331  0.11127013  0.77567119     0.14600
H444        H  0.88890601  0.01331072  0.78896553     0.46500
H445        H  0.87649374  0.17796098  0.71843069     0.41800
H446        H  0.71421994  0.11532267  0.72895178     0.45300
H447        H  0.89257342  0.17962071  0.78301094     0.36800
C448        C  0.60606537  0.27076032  0.73094798    -0.27500
C449        C  0.61580220  0.30762709  0.72897145     0.02100
C450        C  0.64884326  0.31678278  0.71277079     0.30200
C451        C  0.67207163  0.28930277  0.69955822    -0.19300
C452        C  0.66242821  0.25256843  0.70156913    -0.28700
C453        C  0.62936375  0.24321545  0.71751522     0.44200
C454        C  0.59325043  0.33642568  0.74643167     0.05400
O455        O  0.65880923  0.35258190  0.71016859    -0.57200
H456        H  0.69784062  0.29668802  0.68791038     0.18400
O457        O  0.61971690  0.20735386  0.72020965    -0.63900
H458        H  0.58092287  0.26337382  0.74375961     0.16800
C459        C  0.55722887  0.34377471  0.73540585     0.29100
C460        C  0.53731824  0.37225023  0.75199856    -0.24800
C461        C  0.55296721  0.39349334  0.77964284    -0.24100
C462        C  0.58863518  0.38532005  0.79116142     0.40500
C463        C  0.60854639  0.35719820  0.77443080    -0.26500
O464        O  0.54190941  0.32431319  0.70762329    -0.58400
H465        H  0.50980521  0.37811979  0.74305045     0.16100
O466        O  0.60397573  0.40414010  0.81929672    -0.59900
H467        H  0.63603328  0.35134127  0.78351778     0.14600
H468        H  0.63304021  0.19905387  0.74112129     0.46500
H469        H  0.52728392  0.30494811  0.71820900     0.41800
H470        H  0.59588222  0.39109829  0.84010390     0.45300
H471        H  0.64994754  0.35948472  0.68676501     0.36800
C472        C  0.80247615  0.87538781  0.15619697    -0.27500
C473        C  0.81967145  0.85488968  0.12920757     0.02100
C474        C  0.81366953  0.81715692  0.12613826     0.30200
C475        C  0.78992057  0.80070019  0.14911362    -0.19300
C476        C  0.77001540  0.82133799  0.17464159    -0.28700
C477        C  0.77796240  0.85908198  0.17894428     0.44200
C478        C  0.84228935  0.87315746  0.10319366     0.05400
O479        O  0.83013623  0.79616656  0.10013586    -0.57200
H480        H  0.78631501  0.77142483  0.14626703     0.18400
O481        O  0.76431455  0.87996675  0.20641051    -0.63900
H482        H  0.80805966  0.90431324  0.15963882     0.16800
C483        C  0.82699062  0.90061394  0.08306874     0.29100
C484        C  0.84730019  0.91533131  0.05628800    -0.24800
C485        C  0.88309455  0.90319246  0.04907991    -0.24100
C486        C  0.89889233  0.87647718  0.06996014     0.40500
C487        C  0.87842321  0.86158356  0.09672890    -0.26500
O488        O  0.79137620  0.91162047  0.08796251    -0.58400
H489        H  0.83451124  0.93577646  0.04058353     0.16100
O490        O  0.93402607  0.86441289  0.06428203    -0.59900
H491        H  0.89061727  0.84064884  0.11226160     0.14600
H492        H  0.74733405  0.89758765  0.19577975     0.46500
H493        H  0.79294185  0.93544359  0.10111279     0.41800
H494        H  0.94981218  0.88201830  0.07772450     0.45300
H495        H  0.81383031  0.79791286  0.07941442     0.36800
C496        C  0.62263029  0.59610920  0.14205998    -0.27500
C497        C  0.61475809  0.63128135  0.13107532     0.02100
C498        C  0.58605375  0.63620854  0.10706823     0.30200
C499        C  0.56458303  0.60642299  0.09563039    -0.19300
C500        C  0.57080770  0.57143415  0.10829120    -0.28700
C501        C  0.60082592  0.56635168  0.13108320     0.44200
C502        C  0.63573090  0.66276637  0.14602780     0.05400
O503        O  0.57919525  0.66997353  0.09429845    -0.57200
H504        H  0.54259479  0.61094020  0.07719068     0.18400
O505        O  0.60824295  0.53283472  0.14403609    -0.63900
H506        H  0.64488510  0.59197704  0.16037391     0.16800
C507        C  0.61845547  0.68986376  0.16737096     0.29100
C508        C  0.63897118  0.71866355  0.18253315    -0.24800
C509        C  0.67666623  0.72104977  0.17648878    -0.24100
C510        C  0.69400137  0.69387072  0.15526557     0.40500
C511        C  0.67354592  0.66492585  0.14030444    -0.26500
O512        O  0.58163329  0.68811087  0.17397348    -0.58400
H513        H  0.62538122  0.73922393  0.19893169     0.16100
O514        O  0.73103233  0.69499143  0.14953581    -0.59900
H515        H  0.68721099  0.64403118  0.12427843     0.14600
H516        H  0.59287294  0.53142655  0.16522970     0.46500
H517        H  0.57960737  0.67410561  0.19552828     0.41800
H518        H  0.74237082  0.68387362  0.17020391     0.45300
H519        H  0.55632219  0.67857746  0.10586027     0.36800
C520        C  0.65444176  0.84619818  0.32135773    -0.27500
C521        C  0.61710749  0.83751590  0.31850559     0.02100
C522        C  0.60448275  0.81715460  0.28877846     0.30200
C523        C  0.62916621  0.80536993  0.26266169    -0.19300
C524        C  0.66645982  0.81404176  0.26553751    -0.28700
C525        C  0.67902992  0.83477444  0.29505798     0.44200
C526        C  0.59193925  0.84756009  0.34770747     0.05400
O527        O  0.56817267  0.80809477  0.28537637    -0.57200
H528        H  0.61917109  0.78938603  0.24017805     0.18400
O529        O  0.71544721  0.84330409  0.29880513    -0.63900
H530        H  0.66456591  0.86151751  0.34425150     0.16800
C531        C  0.59397929  0.82930654  0.37911344     0.29100
C532        C  0.56768512  0.83586824  0.40510507    -0.24800
C533        C  0.53997141  0.86253347  0.40197318    -0.24100
C534        C  0.53777161  0.88026281  0.36963523     0.40500
C535        C  0.56374001  0.87286884  0.34316357    -0.26500
O536        O  0.61961517  0.80241573  0.38333064    -0.58400
H537        H  0.56762343  0.81736729  0.42618473     0.16100
O538        O  0.50788489  0.90124588  0.36183972    -0.59900
H539        H  0.56094896  0.88591908  0.31837201     0.14600
H540        H  0.72686484  0.82179694  0.30939287     0.46500
H541        H  0.64001488  0.81447253  0.39652674     0.41800
H542        H  0.51770853  0.92540766  0.35596378     0.45300
H543        H  0.56600368  0.78382433  0.29564635     0.36800
C544        C  0.85865504  0.55884919  0.57127089    -0.27500
C545        C  0.82518246  0.57765292  0.56903258     0.02100
C546        C  0.80640521  0.57707937  0.53701006     0.30200
C547        C  0.82084764  0.55808008  0.50787259    -0.19300
C548        C  0.85445630  0.53882725  0.50927353    -0.28700
C549        C  0.87294625  0.53886957  0.54200613     0.44200
C550        C  0.80937876  0.59820870  0.59969855     0.05400
O551        O  0.77332950  0.59456384  0.53406196    -0.57200
H552        H  0.80417439  0.55659405  0.48434409     0.18400
O553        O  0.90342587  0.51780773  0.54665970    -0.63900
H554        H  0.87311350  0.55864195  0.59609580     0.16800
C555        C  0.78292990  0.58250290  0.62114228     0.29100
C556        C  0.76510074  0.60393148  0.64735280    -0.24800
C557        C  0.77342387  0.64111376  0.65272387    -0.24100
C558        C  0.79945205  0.65677171  0.63050761     0.40500
C559        C  0.81728348  0.63534163  0.60462758    -0.26500
O560        O  0.77357256  0.54650344  0.61597451    -0.58400
H561        H  0.74502858  0.59135632  0.66357871     0.16100
O562        O  0.80695689  0.69339204  0.63308105    -0.59900
H563        H  0.83661957  0.64805205  0.58755516     0.14600
H564        H  0.89397576  0.49360761  0.55286651     0.46500
H565        H  0.79089989  0.53298428  0.63076068     0.41800
H566        H  0.78710388  0.70515971  0.61975747     0.45300
H567        H  0.75471071  0.57630376  0.54025309     0.36800
C568        C  0.73998305  0.36097052  0.52378948    -0.27500
C569        C  0.76144572  0.34908309  0.55174612     0.02100
C570        C  0.79419460  0.36748827  0.56061304     0.30200
C571        C  0.80566642  0.39658508  0.54100984    -0.19300
C572        C  0.78493261  0.40770021  0.51231550    -0.28700
C573        C  0.75179782  0.38991808  0.50385430     0.44200
C574        C  0.75056295  0.31663835  0.57085006     0.05400
O575        O  0.81547694  0.35678827  0.58806436    -0.57200
H576        H  0.83139189  0.40992796  0.54756027     0.18400
O577        O  0.73066702  0.40107746  0.47651540    -0.63900
H578        H  0.71460622  0.34715095  0.51685946     0.16800
C579        C  0.71849130  0.31656314  0.59095522     0.29100
C580        C  0.71043531  0.28649156  0.61092104    -0.24800
C581        C  0.73415870  0.25620931  0.61139384    -0.24100
C582        C  0.76520751  0.25561659  0.58954888     0.40500
C583        C  0.77334897  0.28579569  0.56982351    -0.26500
O584        O  0.69607765  0.34663137  0.59292790    -0.58400
H585        H  0.68613849  0.28764411  0.62692792     0.16100
O586        O  0.78781638  0.22572847  0.58719805    -0.59900
H587        H  0.79775077  0.28527048  0.55380477     0.14600
H588        H  0.73689203  0.38421943  0.45647021     0.46500
H589        H  0.67537633  0.34071188  0.57678618     0.41800
H590        H  0.77692491  0.20954607  0.56850418     0.45300
H591        H  0.80546530  0.37010969  0.60901498     0.36800
C592        C  0.75082534  0.69096211  0.31785715    -0.27500
C593        C  0.78593837  0.67619346  0.31223590     0.02100
C594        C  0.80713942  0.68918252  0.28472127     0.30200
C595        C  0.79228336  0.71423336  0.26203128    -0.19300
C596        C  0.75687316  0.72872890  0.26718177    -0.28700
C597        C  0.73675296  0.71774607  0.29639946     0.44200
C598        C  0.79984068  0.64653237  0.33426484     0.05400
O599        O  0.84249601  0.67747814  0.27957568    -0.57200
H600        H  0.80870900  0.72182575  0.24004696     0.18400
O601        O  0.70358018  0.73320807  0.30481447    -0.63900
H602        H  0.73398553  0.68159431  0.33888732     0.16800
C603        C  0.79659679  0.64841989  0.37103138     0.29100
C604        C  0.80928307  0.61965131  0.39081301    -0.24800
C605        C  0.82648408  0.58892397  0.37477980    -0.24100
C606        C  0.83044928  0.58753427  0.33798529     0.40500
C607        C  0.81660851  0.61574385  0.31818985    -0.26500
O608        O  0.78148705  0.67842819  0.38805818    -0.58400
H609        H  0.80551389  0.62155874  0.41887414     0.16100
O610        O  0.84951590  0.55977812  0.32116735    -0.59900
H611        H  0.81917414  0.61345649  0.28996300     0.14600
H612        H  0.70947186  0.75501278  0.31999112     0.46500
H613        H  0.80171510  0.69634618  0.39064493     0.39700
H614        H  0.83102210  0.54563770  0.30719174     0.45300
H615        H  0.85743343  0.69213543  0.29672976     0.36800
C616        C  0.10486218  0.15377636  0.82077408    -0.27500
C617        C  0.13553115  0.13925960  0.80332031     0.02100
C618        C  0.14431311  0.10210020  0.80646851     0.30200
C619        C  0.12220331  0.08004786  0.82665221    -0.19300
C620        C  0.09117843  0.09458501  0.84379796    -0.28700
C621        C  0.08286857  0.13197036  0.84090766     0.44200
C622        C  0.15897849  0.16402860  0.78373437     0.05400
O623        O  0.17443307  0.08714527  0.79003639    -0.57200
H624        H  0.12926827  0.05152553  0.82876680     0.18400
O625        O  0.05377124  0.14790486  0.85822339    -0.63900
H626        H  0.09841201  0.18253843  0.81957477     0.16800
C627        C  0.14385043  0.18708610  0.75890557     0.29100
C628        C  0.16572758  0.21324379  0.74358602    -0.24800
C629        C  0.20306404  0.21696449  0.75259162    -0.24100
C630        C  0.21837140  0.19222087  0.77616020     0.40500
C631        C  0.19630405  0.16662912  0.79187324    -0.26500
O632        O  0.10785955  0.18347981  0.74873137    -0.58400
H633        H  0.15289386  0.22993041  0.72447826     0.16100
O634        O  0.25493149  0.19343546  0.78470317    -0.59900
H635        H  0.20834237  0.14923644  0.81109141     0.14600
H636        H  0.06374316  0.15658596  0.88128420     0.46500
H637        H  0.09522993  0.20546480  0.75872219     0.41800
H638        H  0.26643632  0.17350047  0.77024227     0.45300
H639        H  0.16544696  0.07804759  0.76675059     0.36800
C640        C  0.35897092  0.34069324  0.78493244    -0.27500
C641        C  0.34568755  0.36005572  0.81473495     0.02100
C642        C  0.30853540  0.35640813  0.82374953     0.30200
C643        C  0.28537590  0.33402862  0.80291348    -0.19300
C644        C  0.29876060  0.31486797  0.77303993    -0.28700
C645        C  0.33607776  0.31789534  0.76450939     0.44200
C646        C  0.37078189  0.38524416  0.83461178     0.05400
O647        O  0.29452894  0.37462325  0.85275207    -0.57200
H648        H  0.25676122  0.33199627  0.80989502     0.18400
O649        O  0.35071896  0.29840092  0.73652145    -0.63900
H650        H  0.38725204  0.34357318  0.77712209     0.16800
C651        C  0.40620818  0.37393796  0.84422057     0.29100
C652        C  0.43239455  0.39998930  0.85486988    -0.24800
C653        C  0.42446062  0.43740920  0.85347630    -0.24100
C654        C  0.38713052  0.44753399  0.85253597     0.40500
C655        C  0.36078487  0.42182908  0.84144056    -0.26500
O656        O  0.41561322  0.33765289  0.84238386    -0.58400
H657        H  0.45978688  0.39093489  0.86122707     0.16100
O658        O  0.37599077  0.48209045  0.86259508    -0.59900
H659        H  0.33301877  0.43091012  0.83670717     0.14600
H660        H  0.35539773  0.27364247  0.74507030     0.46500
H661        H  0.43364487  0.33492871  0.82313616     0.41800
H662        H  0.37809613  0.48337302  0.88848260     0.45300
H663        H  0.30119666  0.35947710  0.87272009     0.36800
C664        C  0.78170593  0.18350191  0.10417002    -0.27500
C665        C  0.81786741  0.17398565  0.11240482     0.02100
C666        C  0.83372632  0.18895304  0.14342905     0.30200
C667        C  0.81406116  0.21379959  0.16496061    -0.19300
C668        C  0.77807384  0.22459080  0.15632252    -0.28700
C669        C  0.76163596  0.20769795  0.12606109     0.44200
C670        C  0.83904735  0.14888774  0.08836033     0.05400
O671        O  0.86841031  0.17903709  0.15331471    -0.57200
H672        H  0.82717088  0.22336536  0.18896626     0.18400
O673        O  0.72595129  0.21490260  0.11722518    -0.63900
H674        H  0.76890498  0.17224299  0.08048098     0.16800
C675        C  0.82544359  0.11434641  0.07724349     0.29100
C676        C  0.84595208  0.09151025  0.05425260    -0.24800
C677        C  0.88016296  0.10256758  0.04179695    -0.24100
C678        C  0.89384621  0.13710643  0.05336310     0.40500
C679        C  0.87327861  0.15984125  0.07614464    -0.26500
O680        O  0.79276982  0.10211299  0.08977873    -0.58400
H681        H  0.83496243  0.06506623  0.04616596     0.16100
O682        O  0.92699720  0.14946133  0.04209773    -0.59900
H683        H  0.88405776  0.18643048  0.08408829     0.14600
H684        H  0.71118263  0.19689388  0.12958650     0.46500
H685        H  0.77509060  0.10400716  0.07013691     0.41800
H686        H  0.94500983  0.14206817  0.06000901     0.45300
H687        H  0.86517288  0.15668563  0.16667354     0.36800
C688        C  0.60264354  0.39337758  0.07251131    -0.27500
C689        C  0.60082175  0.38314051  0.10751758     0.02100
C690        C  0.57015799  0.39333549  0.12733276     0.30200
C691        C  0.54248081  0.41416245  0.11275416    -0.19300
C692        C  0.54317155  0.42461728  0.07746933    -0.28700
C693        C  0.57444760  0.41435313  0.05757588     0.44200
C694        C  0.63091174  0.36266781  0.12433711     0.05400
O695        O  0.56760803  0.38421778  0.16167965    -0.57200
H696        H  0.52068222  0.42349916  0.13001593     0.18400
O697        O  0.57935694  0.42639739  0.02462580    -0.63900
H698        H  0.62655744  0.38611314  0.05707267     0.16800
C699        C  0.63127589  0.32433581  0.12262570     0.29100
C700        C  0.65731466  0.30521755  0.14186402    -0.24800
C701        C  0.68321623  0.32374166  0.16341319    -0.24100
C702        C  0.68293671  0.36213873  0.16504600     0.40500
C703        C  0.65667294  0.38132073  0.14590145    -0.26500
O704        O  0.60619132  0.30531962  0.10225377    -0.58400
H705        H  0.65745991  0.27566774  0.13981745     0.16100
O706        O  0.70858130  0.38120989  0.18458990    -0.59900
H707        H  0.65630448  0.41086104  0.14794161     0.14600
H708        H  0.59139438  0.45049732  0.02803027     0.46500
H709        H  0.58512692  0.30130456  0.11787650     0.41800
H710        H  0.73024519  0.38274018  0.16919045     0.45300
H711        H  0.55625418  0.35966440  0.16093387     0.36800
C712        C  0.84357133  0.37348693  0.36992692    -0.27500
C713        C  0.83520268  0.38580456  0.33642075     0.02100
C714        C  0.84672380  0.42110343  0.32841971     0.30200
C715        C  0.86066955  0.44494828  0.35490349    -0.19300
C716        C  0.86190660  0.43492672  0.39006453    -0.28700
C717        C  0.85861818  0.39729077  0.39599521     0.44200
C718        C  0.81428711  0.36232205  0.31022091     0.05400
O719        O  0.84391127  0.43282088  0.29490065    -0.57200
H720        H  0.87063875  0.47111060  0.34753831     0.18400
O721        O  0.86785572  0.38387827  0.42782383    -0.63900
H722        H  0.83720063  0.34580832  0.37646442     0.16800
C723        C  0.82448346  0.32593472  0.30209342     0.29100
C724        C  0.80489183  0.30507578  0.27666403    -0.24800
C725        C  0.77465300  0.31956485  0.25867268    -0.24100
C726        C  0.76339857  0.35542130  0.26808573     0.40500
C727        C  0.78330777  0.37648454  0.29327795    -0.26500
O728        O  0.85486298  0.31111487  0.31736480    -0.58400
H729        H  0.81382807  0.27734127  0.27076051     0.16100
O730        O  0.73420911  0.37096178  0.25165802    -0.59900
H731        H  0.77446590  0.40418565  0.29957521     0.14600
H732        H  0.89452466  0.37890786  0.42645041     0.46500
H733        H  0.84529602  0.29321001  0.33374331     0.41800
H734        H  0.71402598  0.37110269  0.26891873     0.45300
H735        H  0.86696214  0.42479630  0.28328824     0.36800
C736        C  0.60047320  0.14176674  0.59952615    -0.27500
C737        C  0.61347941  0.11555594  0.57486826     0.02100
C738        C  0.65069079  0.10575019  0.57518816     0.30200
C739        C  0.67479607  0.12371641  0.59876944    -0.19300
C740        C  0.66215913  0.15171534  0.62193621    -0.28700
C741        C  0.62451361  0.15999613  0.62282002     0.44200
C742        C  0.58938734  0.10466594  0.54515937     0.05400
O743        O  0.66418016  0.08081810  0.55080701    -0.57200
H744        H  0.70370942  0.11705935  0.59771414     0.18400
O745        O  0.61093252  0.18561486  0.64652389    -0.63900
H746        H  0.57178671  0.14946525  0.59945103     0.16800
C747        C  0.57230121  0.07042874  0.54194459     0.29100
C748        C  0.54624310  0.06339859  0.51520543    -0.24800
C749        C  0.53693879  0.09026261  0.49127989    -0.24100
C750        C  0.55410100  0.12493308  0.49574457     0.40500
C751        C  0.58052840  0.13129871  0.52161010    -0.26500
O752        O  0.57967245  0.04430958  0.56565200    -0.58400
H753        H  0.53185507  0.03795359  0.51532531     0.16100
O754        O  0.54375295  0.15374428  0.47607875    -0.59900
H755        H  0.59288602  0.15811500  0.52446371     0.14600
H756        H  0.60328455  0.20654656  0.63256810     0.46500
H757        H  0.56138131  0.04841400  0.58451555     0.41800
H758        H  0.52875811  0.16987324  0.49180867     0.45300
H759        H  0.66425022  0.05724577  0.56258157     0.36800
C760        C  0.35416028  0.17341667  0.56434448    -0.27500
C761        C  0.37324688  0.19642894  0.58814362     0.02100
C762        C  0.41080177  0.20246038  0.58376946     0.30200
C763        C  0.42908766  0.18509506  0.55571639    -0.19300
C764        C  0.41021890  0.16155631  0.53190183    -0.28700
C765        C  0.37239481  0.15574094  0.53648747     0.44200
C766        C  0.35376909  0.21236694  0.61847184     0.05400
O767        O  0.42998673  0.22421063  0.60745072    -0.57200
H768        H  0.45813803  0.18980861  0.55264279     0.18400
O769        O  0.35328217  0.13172592  0.51490035    -0.63900
H770        H  0.32520628  0.16842898  0.56797354     0.16800
C771        C  0.33731335  0.24685810  0.61712941     0.29100
C772        C  0.31497570  0.25948871  0.64458909    -0.24800
C773        C  0.30920530  0.23810102  0.67370475    -0.24100
C774        C  0.32763927  0.20439268  0.67576268     0.40500
C775        C  0.34942047  0.19159557  0.64800229    -0.26500
O776        O  0.34131259  0.26744212  0.58827265    -0.58400
H777        H  0.30085375  0.28526408  0.64222334     0.16100
O778        O  0.32403354  0.18339138  0.70438470    -0.59900
H779        H  0.36237749  0.16505911  0.64915423     0.14600
H780        H  0.35770424  0.10740125  0.52450601     0.46500
H781        H  0.36354042  0.28237933  0.59311361     0.41800
H782        H  0.34133592  0.19399369  0.72209642     0.45300
H783        H  0.42937018  0.24888839  0.59785567     0.36800
C784        C  0.61965596  0.15669479  0.33417594    -0.27500
C785        C  0.60505055  0.18481150  0.31458211     0.02100
C786        C  0.56713471  0.19175320  0.31597763     0.30200
C787        C  0.54451768  0.17101895  0.33700701    -0.19300
C788        C  0.55902286  0.14280454  0.35680542    -0.28700
C789        C  0.59704045  0.13552211  0.35476182     0.44200
C790        C  0.62937337  0.20536760  0.29139665     0.05400
O791        O  0.55192733  0.21889235  0.29697282    -0.57200
H792        H  0.51561788  0.17755058  0.33830494     0.18400
O793        O  0.61240053  0.10728072  0.37212121    -0.63900
H794        H  0.64866838  0.15053473  0.33281076     0.16800
C795        C  0.65825979  0.22715123  0.30513127     0.29100
C796        C  0.68205798  0.24465790  0.28245599    -0.24800
C797        C  0.67816320  0.23976319  0.24600538    -0.24100
C798        C  0.64900435  0.21836986  0.23233611     0.40500
C799        C  0.62471976  0.20166352  0.25494936    -0.26500
O800        O  0.66326357  0.23161602  0.34064934    -0.58400
H801        H  0.70446884  0.26089291  0.29333062     0.16100
O802        O  0.64448206  0.21299978  0.19685137    -0.59900
H803        H  0.60278865  0.18484038  0.24399008     0.14600
H804        H  0.60863941  0.08537203  0.35643711     0.46500
H805        H  0.68271668  0.21392398  0.34653127     0.41800
H806        H  0.63001429  0.23427110  0.18943459     0.45300
H807        H  0.55434588  0.24138548  0.31208042     0.36800
C808        C  0.14221769  0.82813874  0.71741147    -0.27500
C809        C  0.14860312  0.82709238  0.75351570     0.02100
C810        C  0.17656679  0.80466515  0.76586016     0.30200
C811        C  0.19715486  0.78290398  0.74235433    -0.19300
C812        C  0.19048853  0.78274585  0.70583138    -0.28700
C813        C  0.16323866  0.80680966  0.69366516     0.44200
C814        C  0.12621643  0.84951804  0.77840189     0.05400
O815        O  0.18303702  0.80275876  0.80115922    -0.57200
H816        H  0.21827868  0.76668896  0.75375541     0.18400
O817        O  0.15624510  0.80899475  0.65851362    -0.63900
H818        H  0.12099085  0.84575863  0.70758259     0.16800
C819        C  0.14214305  0.87822131  0.79867032     0.29100
C820        C  0.12128326  0.89771462  0.82369982    -0.24800
C821        C  0.08437334  0.88889572  0.82925813    -0.24100
C822        C  0.06826943  0.86041810  0.80848789     0.40500
C823        C  0.08913756  0.84121012  0.78306549    -0.26500
O824        O  0.17829164  0.88708158  0.79454328    -0.58400
H825        H  0.13434011  0.91942283  0.83924535     0.16100
O826        O  0.03210498  0.85148792  0.81236974    -0.59900
H827        H  0.07658420  0.81919749  0.76750342     0.14600
H828        H  0.17027227  0.83044823  0.65118939     0.46500
H829        H  0.17855686  0.90418209  0.77512657     0.41800
H830        H  0.03220166  0.83011616  0.82743274     0.45300
H831        H  0.20566365  0.81712434  0.80580376     0.36800
C832        C  0.29677811  0.63285123  0.72548175    -0.27500
C833        C  0.33385229  0.63481542  0.71651743     0.02100
C834        C  0.34440781  0.65775917  0.68974646     0.30200
C835        C  0.31802811  0.67903339  0.67294308    -0.19300
C836        C  0.28121640  0.67870015  0.68338158    -0.28700
C837        C  0.27062588  0.65456828  0.70928597     0.44200
C838        C  0.36093365  0.61275114  0.73563538     0.05400
O839        O  0.38039341  0.65958109  0.67991174    -0.57200
H840        H  0.32670666  0.69692009  0.65289725     0.18400
O841        O  0.23481514  0.65282323  0.71972902    -0.63900
H842        H  0.28822606  0.61503688  0.74579894     0.16800
C843        C  0.38376380  0.62876478  0.76181328     0.29100
C844        C  0.40681267  0.60679642  0.78167346    -0.24800
C845        C  0.40721200  0.56863704  0.77616360    -0.24100
C846        C  0.38491555  0.55284368  0.74927243     0.40500
C847        C  0.36201130  0.57487610  0.72939819    -0.26500
O848        O  0.38313991  0.66574925  0.76870437    -0.58400
H849        H  0.42358740  0.61947444  0.80221694     0.16100
O850        O  0.38637782  0.51607412  0.74130103    -0.59900
H851        H  0.34474091  0.56228141  0.70916994     0.14600
H852        H  0.22295466  0.63531455  0.70276864     0.46500
H853        H  0.36266954  0.67000936  0.78533910     0.41800
H854        H  0.36226449  0.50636249  0.74822769     0.45300
H855        H  0.39067608  0.68068761  0.69371747     0.36800
C856        C  0.29283725  0.80836549  0.55492169    -0.27500
C857        C  0.33063721  0.80422466  0.56079124     0.02100
C858        C  0.34250466  0.78398672  0.58927115     0.30200
C859        C  0.31687718  0.76809324  0.61117919    -0.19300
C860        C  0.27919428  0.77141250  0.60491410    -0.28700
C861        C  0.26717475  0.79210678  0.57677425     0.44200
C862        C  0.35778708  0.81918980  0.53622980     0.05400
O863        O  0.37919565  0.78084850  0.59661288    -0.57200
H864        H  0.32654688  0.75402591  0.63372323     0.18400
O865        O  0.23044042  0.79704650  0.57084014    -0.63900
H866        H  0.28324379  0.82384727  0.53313940     0.16800
C867        C  0.37842256  0.79539452  0.51456331     0.29100
C868        C  0.40552469  0.80904015  0.49305507    -0.24800
C869        C  0.41279210  0.84684844  0.49141880    -0.24100
C870        C  0.39299464  0.87062546  0.51462577     0.40500
C871        C  0.36533841  0.85671790  0.53621360    -0.26500
O872        O  0.37215838  0.75850332  0.51415029    -0.58400
H873        H  0.42170615  0.78935531  0.47791984     0.16100
O874        O  0.40293514  0.90640621  0.51952714    -0.59900
H875        H  0.35081101  0.87518070  0.55415199     0.14600
H876        H  0.22404628  0.77934146  0.55146314     0.46500
H877        H  0.39328619  0.74799328  0.52671561     0.41800
H878        H  0.38026081  0.92083132  0.51606698     0.45300
H879        H  0.38530233  0.75479371  0.59175866     0.36800
C880        C  0.22952952  0.38316127  0.64822805    -0.27500
C881        C  0.21116816  0.37042788  0.61772484     0.02100
C882        C  0.20043655  0.33353764  0.61450934     0.30200
C883        C  0.20787071  0.31013023  0.64152430    -0.19300
C884        C  0.22592531  0.32291764  0.67204482    -0.28700
C885        C  0.23691257  0.35963231  0.67532228     0.44200
C886        C  0.20113451  0.39581691  0.59010596     0.05400
O887        O  0.18224347  0.32016383  0.58520910    -0.57200
H888        H  0.19985604  0.28174880  0.63847652     0.18400
O889        O  0.25453336  0.37282434  0.70500242    -0.63900
H890        H  0.23803365  0.41139800  0.65106521     0.16800
C891        C  0.17929575  0.42671878  0.59794670     0.29100
C892        C  0.16396637  0.44621585  0.57079943    -0.24800
C893        C  0.17040943  0.43559411  0.53562402    -0.24100
C894        C  0.19506839  0.40672626  0.52795481     0.40500
C895        C  0.21004442  0.38699343  0.55509237    -0.26500
O896        O  0.17011042  0.43611638  0.63188734    -0.58400
H897        H  0.14523548  0.46834888  0.57733896     0.16100
O898        O  0.20385524  0.39679947  0.49404410    -0.59900
H899        H  0.22763206  0.36384657  0.54873815     0.14600
H900        H  0.23473417  0.37948088  0.72175030     0.46500
H901        H  0.18594477  0.45722327  0.63861343     0.41800
H902        H  0.22224795  0.41489156  0.48705526     0.45300
H903        H  0.15609279  0.32634100  0.58926813     0.36800
C904        C  0.16484553  0.61492850  0.23122357    -0.27500
C905        C  0.18558892  0.61152730  0.26191605     0.02100
C906        C  0.21915147  0.62983405  0.26583326     0.30200
C907        C  0.23126787  0.65199059  0.23950704    -0.19300
C908        C  0.21009081  0.65644194  0.20916829    -0.28700
C909        C  0.17692497  0.63725712  0.20481614     0.44200
C910        C  0.17084117  0.59103002  0.29087889     0.05400
O911        O  0.23985943  0.62684907  0.29565376    -0.57200
H912        H  0.25685182  0.66653473  0.24334657     0.18400
O913        O  0.15693838  0.63914016  0.17442918    -0.63900
H914        H  0.13907724  0.60055441  0.22796865     0.16800
C915        C  0.14216766  0.60585443  0.31128682     0.29100
C916        C  0.12913413  0.58701303  0.33960969    -0.24800
C917        C  0.14414857  0.55312373  0.34773524    -0.24100
C918        C  0.17294583  0.53830319  0.32728715     0.40500
C919        C  0.18634025  0.55746035  0.29914091    -0.26500
O920        O  0.12772599  0.63940091  0.30450237    -0.58400
H921        H  0.10703973  0.59872693  0.35520227     0.16100
O922        O  0.18937205  0.50619610  0.33583721    -0.59900
H923        H  0.20892255  0.54625208  0.28385490     0.14600
H924        H  0.13533709  0.65448928  0.18060071     0.46500
H925        H  0.10745637  0.63438357  0.28762176     0.41800
H926        H  0.18063509  0.48778323  0.31799037     0.45300
H927        H  0.23090357  0.64651544  0.31204247     0.36800
C928        C  0.10207410  0.58081400  0.55077294    -0.27500
C929        C  0.11642831  0.61313699  0.53781967     0.02100
C930        C  0.11110633  0.61932694  0.50197956     0.30200
C931        C  0.09682737  0.59160136  0.47936952    -0.19300
C932        C  0.08961702  0.55656883  0.49128477    -0.28700
C933        C  0.08722866  0.55350804  0.52800293     0.44200
C934        C  0.13766077  0.63937827  0.56136986     0.05400
O935        O  0.12048619  0.65208132  0.48856095    -0.57200
H936        H  0.09113640  0.59795014  0.45269559     0.18400
O937        O  0.07370359  0.52243946  0.54186211    -0.63900
H938        H  0.10403938  0.57568057  0.57839576     0.16800
C939        C  0.12487957  0.65047807  0.59483945     0.29100
C940        C  0.14648365  0.67305568  0.61722463    -0.24800
C941        C  0.18096382  0.68617768  0.60688421    -0.24100
C942        C  0.19322038  0.67582786  0.57288253     0.40500
C943        C  0.17200066  0.65235926  0.55084580    -0.26500
O944        O  0.09053301  0.64070178  0.60538888    -0.58400
H945        H  0.13590848  0.67997162  0.64303345     0.16100
O946        O  0.22550524  0.68890168  0.56038139    -0.59900
H947        H  0.18262835  0.64413691  0.52531125     0.14600
H948        H  0.04700210  0.52675396  0.54413093     0.46500
H949        H  0.09450273  0.62374337  0.62459362     0.41800
H950        H  0.21882549  0.71170082  0.54880908     0.45300
H951        H  0.09900147  0.66818637  0.49291814     0.36800
C952        C  0.08587311  0.13659752  0.10087925    -0.27500
C953        C  0.11844793  0.12135352  0.11346260     0.02100
C954        C  0.13029620  0.08741441  0.09912025     0.30200
C955        C  0.11042031  0.06996571  0.07174626    -0.19300
C956        C  0.07867875  0.08595129  0.05794163    -0.28700
C957        C  0.06609127  0.11930787  0.07332127     0.44200
C958        C  0.14026356  0.14169980  0.14082767     0.05400
O959        O  0.16070616  0.07066298  0.11241378    -0.57200
H960        H  0.12029532  0.04399525  0.06101215     0.18400
O961        O  0.03454084  0.13533983  0.06174843    -0.63900
H962        H  0.07620016  0.16252119  0.11192555     0.16800
C963        C  0.17631859  0.15281301  0.13427089     0.29100
C964        C  0.19591556  0.17326451  0.15982039    -0.24800
C965        C  0.17990962  0.18447243  0.19209637    -0.24100
C966        C  0.14456477  0.17076673  0.19939373     0.40500
C967        C  0.12482214  0.15061896  0.17357304    -0.26500
O968        O  0.19263602  0.14416902  0.10275655    -0.58400
H969        H  0.22392634  0.18031569  0.15405695     0.16100
O970        O  0.12918437  0.17578853  0.23184982    -0.59900
H971        H  0.09748930  0.14126040  0.17940328     0.14600
H972        H  0.04260257  0.15289402  0.04434530     0.46500
H973        H  0.18484955  0.16360532  0.08703842     0.41800
H974        H  0.14027167  0.15669551  0.24619907     0.45300
H975        H  0.17940912  0.07120023  0.09373990     0.36800
C976        C  0.37382263  0.33604771  0.13498318    -0.27500
C977        C  0.35433082  0.35150489  0.16350624     0.02100
C978        C  0.35824391  0.38901612  0.17190454     0.30200
C979        C  0.38126855  0.41050364  0.15188413    -0.19300
C980        C  0.40064593  0.39517069  0.12312649    -0.28700
C981        C  0.39667239  0.35755382  0.11479871     0.44200
C982        C  0.32768278  0.32886974  0.18233206     0.05400
O983        O  0.34001920  0.40479222  0.19993843    -0.57200
H984        H  0.38421150  0.43923603  0.15897309     0.18400
O985        O  0.41417354  0.34174022  0.08637140    -0.63900
H986        H  0.37056143  0.30734962  0.12781416     0.16800
C987        C  0.29009369  0.33082974  0.17431113     0.29100
C988        C  0.26531483  0.30726395  0.18967430    -0.24800
C989        C  0.27726890  0.28148036  0.21346876    -0.24100
C990        C  0.31471415  0.28048279  0.22264102     0.40500
C991        C  0.33968693  0.30389842  0.20689236    -0.26500
O992        O  0.27740889  0.35520548  0.15081249    -0.58400
H993        H  0.23661440  0.30865102  0.18244285     0.16100
O994        O  0.32741678  0.25583199  0.24586135    -0.59900
H995        H  0.36855241  0.30211732  0.21335005     0.14600
H996        H  0.39797750  0.34632076  0.06608588     0.46500
H997        H  0.27976593  0.34248601  0.12750741     0.41800
H998        H  0.33109521  0.23282342  0.23178181     0.45300
H999        H  0.31697382  0.41451591  0.19005878     0.36800
C1000       C  0.38376144  0.15516227  0.36725417    -0.27500
C1001       C  0.35577035  0.13223446  0.35469350     0.02100
C1002       C  0.35773979  0.09478245  0.36194472     0.30200
C1003       C  0.38719110  0.08111400  0.38187702    -0.19300
C1004       C  0.41534364  0.10429095  0.39478287    -0.28700
C1005       C  0.41287406  0.14190924  0.38701855     0.44200
C1006       C  0.32580549  0.14821620  0.33310123     0.05400
O1007       O  0.33077763  0.07134704  0.35009586    -0.57200
H1008       H  0.38729405  0.05263786  0.38759093     0.18400
O1009       O  0.43906684  0.16634417  0.39889359    -0.63900
H1010       H  0.38318492  0.18386345  0.36160806     0.16800
C1011       C  0.30519449  0.17868178  0.34567604     0.29100
C1012       C  0.28048742  0.19628398  0.32347711    -0.24800
C1013       C  0.27548943  0.18396713  0.28847111    -0.24100
C1014       C  0.29609158  0.15335317  0.27601822     0.40500
C1015       C  0.32054561  0.13568304  0.29827854    -0.26500
O1016       O  0.30926808  0.19173146  0.37962728    -0.58400
H1017       H  0.26494491  0.21946858  0.33380551     0.16100
O1018       O  0.29372087  0.14117674  0.24166749    -0.59900
H1019       H  0.33665853  0.11295774  0.28780885     0.14600
H1020       H  0.42674206  0.18264926  0.41656435     0.46500
H1021       H  0.29314123  0.17626228  0.39357793     0.41800
H1022       H  0.31039784  0.15712714  0.22882968     0.45300
H1023       H  0.31054715  0.07465307  0.36714869     0.36800
C1024       C  0.18017475  0.34355112  0.31455997    -0.27500
C1025       C  0.15108292  0.33483580  0.33675463     0.02100
C1026       C  0.13925866  0.29824297  0.33673137     0.30200
C1027       C  0.15623239  0.27146218  0.31483473    -0.19300
C1028       C  0.18582348  0.28022798  0.29330178    -0.28700
C1029       C  0.19759392  0.31671889  0.29330171     0.44200
C1030       C  0.13472333  0.36405716  0.36055942     0.05400
O1031       O  0.11157535  0.28819172  0.35838412    -0.57200
H1032       H  0.14651277  0.24359093  0.31494695     0.18400
O1033       O  0.22548805  0.32674702  0.27189185    -0.63900
H1034       H  0.18940035  0.37151973  0.31351184     0.16800
C1035       C  0.15764081  0.38737697  0.38074770     0.29100
C1036       C  0.14295564  0.41666320  0.40043003    -0.24800
C1037       C  0.10473959  0.42289369  0.40345938    -0.24100
C1038       C  0.08156202  0.39935475  0.38306859     0.40500
C1039       C  0.09664286  0.37036869  0.36197073    -0.26500
O1040       O  0.19484599  0.38202336  0.38133975    -0.58400
H1041       H  0.16220313  0.43498432  0.41372520     0.16100
O1042       O  0.04485134  0.40607807  0.38062399    -0.59900
H1043       H  0.07847662  0.35348683  0.34573527     0.14600
H1044       H  0.21331926  0.33391688  0.24993680     0.46500
H1045       H  0.19925040  0.36501856  0.40042270     0.41800
H1046       H  0.03270164  0.38407357  0.38932569     0.45300
H1047       H  0.12375734  0.28302238  0.38089115     0.36800
loop_ 
_geom_bond_atom_site_label_1 
_geom_bond_atom_site_label_2 
_geom_bond_distance 
_geom_bond_site_symmetry_2 
_ccdc_geom_bond_type 
C1            C2   1.532       .  S
C1            C7   1.543       .  S
C1            C5   1.542       .  S
C1          C965   1.541       .  S
C2            H9   1.086       .  S
C2            C3   1.368       .  D
C3            C4   1.554       .  S
C3         C1013   1.504       .  S
C4            C8   1.545       .  S
C4            C6   1.552       .  S
C4           H10   1.110       .  S
C5           H11   1.084       .  S
C5            C6   1.368       .  D
C6         C1028   1.495       .  S
C7           H12   1.085       .  S
C7            C8   1.365       .  D
C8          C989   1.493       .  S
C13          C15   1.535       .  S
C13          C17   1.538       .  S
C13          C16   1.565       .  S
C13        C1037   1.558       .  S
C14          C18   1.548       .  S
C14          C20   1.538       .  S
C14          C19   1.552       .  S
C14         C932   1.552       .  S
C15          C23   1.375       .  A
C15          C18   1.396       .  A
C16          C27   1.392       .  A
C16          C19   1.416       .  A
C17          C31   1.377       .  A
C17          C20   1.384       .  A
C18          C21   1.386       .  A
C19          C25   1.381       .  A
C20          C28   1.382       .  A
C21          N22   1.355       .  A
C21          H34   1.077       .  S
N22          C23   1.352       .  A
N22         C917   1.435       .  S
C23          H24   1.082       .  S
C25          N26   1.360   1_455  A
C25          H35   1.081       .  S
N26          C27   1.363   1_655  A
N26         N108   1.421       .  S
C27          H33   1.074       .  S
C28          N29   1.357       .  A
C28          H30   1.081       .  S
N29          C31   1.356       .  A
N29         C893   1.440       .  S
C31          H32   1.082       .  S
C36          C37   1.535       .  S
C36          C42   1.542       .  S
C36          C40   1.537       .  S
C36         C812   1.541       .  S
C37          H44   1.086       .  S
C37          C38   1.365       .  D
C38          C39   1.550       .  S
C38         C860   1.488       .  S
C39          C43   1.544       .  S
C39          C41   1.560       .  S
C39          H45   1.108       .  S
C40          H46   1.085       .  S
C40          C41   1.373       .  D
C41         C941   1.512       .  S
C42          H47   1.079       .  S
C42          C43   1.360       .  D
C43         C836   1.492       .  S
C48          C50   1.531       .  S
C48          C52   1.546       .  S
C48          C51   1.577       .  S
C48        C1004   1.549       .  S
C49          C53   1.523       .  S
C49          C55   1.535       .  S
C49          C54   1.553       .  S
C49         C749   1.538       .  S
C50          C58   1.377       .  A
C50          C53   1.377       .  A
C51          C62   1.399       .  A
C51          C54   1.423       .  A
C52          C66   1.384       .  A
C52          C55   1.386       .  A
C53          C56   1.374       .  A
C54          C60   1.379       .  A
C55          C63   1.378       .  A
C56          N57   1.355       .  A
C56          H69   1.083       .  S
N57          C58   1.357       .  A
N57         C764   1.436       .  S
C58          H59   1.082       .  S
C60          N61   1.352   1_545  A
C60          H70   1.078       .  S
N61          C62   1.365   1_565  A
N61         N155   1.414       .  S
C62          H68   1.079       .  S
C63          N64   1.358       .  A
C63          H65   1.081       .  S
N64          C66   1.363       .  A
N64         C788   1.449       .  S
C66          H67   1.082       .  S
C71          C72   1.542       .  S
C71          C77   1.534       .  S
C71          C75   1.536       .  S
C71         C668   1.540       .  S
C72          H79   1.082       .  S
C72          C73   1.370       .  D
C73          C74   1.555       .  S
C73         C725   1.507       .  S
C74          C78   1.554       .  S
C74          C76   1.543       .  S
C74          H80   1.109       .  S
C75          H81   1.086       .  S
C75          C76   1.365       .  D
C76         C797   1.486       .  S
C77          H82   1.086       .  S
C77          C78   1.363       .  D
C78         C701   1.491       .  S
C83          C84   1.547       .  S
C83          C89   1.540       .  S
C83          C87   1.532       .  S
C83         C629   1.527       .  S
C84          H91   1.082       .  S
C84          C85   1.367       .  D
C85          C86   1.530       .  S
C85         C884   1.475       .  S
C86          C90   1.535       .  S
C86          C88   1.534       .  S
C86          H92   1.110       .  S
C87          H93   1.086       .  S
C87          C88   1.363       .  D
C88         C773   1.479       .  S
C89          H94   1.086       .  S
C89          C90   1.364       .  D
C90         C644   1.482       .  S
C95          C97   1.538       .  S
C95          C99   1.531       .  S
C95          C98   1.551       .  S
C95         C548   1.543       .  S
C96         C100   1.553       .  S
C96         C102   1.541       .  S
C96         C101   1.559       .  S
C96         C716   1.549       .  S
C97         C105   1.377       .  A
C97         C100   1.393       .  A
C98         C109   1.390       .  A
C98         C101   1.419       .  A
C99         C113   1.377       .  A
C99         C102   1.384       .  A
C100        C103   1.385       .  A
C101        C107   1.386       .  A
C102        C110   1.386       .  A
C103        N104   1.359       .  A
C103        H116   1.077       .  S
N104        C105   1.357       .  A
N104        C605   1.448       .  S
C105        H106   1.081       .  S
C107        N108   1.360       .  A
C107        H117   1.082       .  S
N108        C109   1.359       .  A
C109        H115   1.080       .  S
C110        N111   1.356       .  A
C110        H112   1.080       .  S
N111        C113   1.352       .  A
N111        C572   1.435       .  S
C113        H114   1.083       .  S
C118        C119   1.548       .  S
C118        C124   1.541       .  S
C118        C122   1.534       .  S
C118        C476   1.535       .  S
C119        H126   1.080       .  S
C119        C120   1.368       .  D
C120        C121   1.537       .  S
C120        C524   1.482       .  S
C121        C125   1.533       .  S
C121        C123   1.544       .  S
C121        H127   1.107       .  S
C122        H128   1.085       .  S
C122        C123   1.370       .  D
C123        C596   1.496       .  S
C124        H129   1.086       .  S
C124        C125   1.359       .  D
C125        C509   1.480       .  S
C130        C131   1.535       .  S
C130        C136   1.542       .  S
C130        C134   1.548       .  S
C130        C437   1.531       .  S
C131        H138   1.086       .  S
C131        C132   1.362       .  D
C132        C133   1.539       .  S
C132        C740   1.481       .  S
C133        C137   1.531       .  S
C133        C135   1.538       .  S
C133        H139   1.109       .  S
C134        H140   1.080       .  S
C134        C135   1.370       .  D
C135        C581   1.492       .  S
C136        H141   1.086       .  S
C136        C137   1.362       .  D
C137        C452   1.471       .  S
C142        C144   1.539       .  S
C142        C146   1.544       .  S
C142        C145   1.575       .  S
C142        C869   1.552       .  S
C143        C147   1.528       .  S
C143        C149   1.545       .  S
C143        C148   1.546       .  S
C143        C533   1.543       .  S
C144        C152   1.380       .  A
C144        C147   1.383       .  A
C145        C156   1.401       .  A
C145        C148   1.414       .  A
C146        C160   1.384       .  A
C146        C149   1.393       .  A
C147        C150   1.377       .  A
C148        C154   1.377       .  A
C149        C157   1.385       .  A
C150        N151   1.356       .  A
C150        H163   1.082       .  S
N151        C152   1.359       .  A
N151        C413   1.439       .  S
C152        H153   1.082       .  S
C154        N155   1.353       .  A
C154        H164   1.082       .  S
N155        C156   1.363       .  A
C156        H162   1.077       .  S
C157        N158   1.357       .  A
C157        H159   1.081       .  S
N158        C160   1.358       .  A
N158        C389   1.442       .  S
C160        H161   1.082       .  S
C165        C166   1.541       .  S
C165        C171   1.543       .  S
C165        C169   1.546       .  S
C165        C341   1.531       .  S
C166        H173   1.086       .  S
C166        C167   1.367       .  D
C167        C168   1.529       .  S
C167        C908   1.477       .  S
C168        C172   1.532       .  S
C168        C170   1.525       .  S
C168        H174   1.111       .  S
C169        H175   1.081       .  S
C169        C170   1.361       .  D
C170        C404   1.472       .  S
C171        H176   1.086       .  S
C171        C172   1.365       .  D
C172        C356   1.475       .  S
C177        C178   1.532       .  S
C177        C183   1.543       .  S
C177        C181   1.537       .  S
C177        C284   1.537       .  S
C178        H185   1.086       .  S
C178        C179   1.366       .  D
C179        C180   1.554       .  S
C179        C557   1.499       .  S
C180        C184   1.553       .  S
C180        C182   1.542       .  S
C180        H186   1.110       .  S
C181        H187   1.087       .  S
C181        C182   1.363       .  D
C182        C380   1.482       .  S
C183        H188   1.081       .  S
C183        C184   1.368       .  D
C184        C308   1.499       .  S
C189        C191   1.542       .  S
C189        C193   1.549       .  S
C189        C192   1.576       .  S
C189        C692   1.549       .  S
C190        C194   1.534       .  S
C190        C196   1.528       .  S
C190        C195   1.547       .  S
C190        C365   1.532       .  S
C191        C199   1.386       .  A
C191        C194   1.393       .  A
C192        C203   1.399   1_554  A
C192        C195   1.414       .  A
C193        C207   1.388       .  A
C193        C196   1.382       .  A
C194        C197   1.381       .  A
C195        C201   1.379   1_554  A
C196        C204   1.382       .  A
C197        N198   1.353       .  A
C197        H210   1.081       .  S
N198        C199   1.355       .  A
N198        C500   1.445       .  S
C199        H200   1.082       .  S
C201        N202   1.352       .  A
C201        H211   1.081       .  S
N202        C203   1.365       .  A
N202        N225   1.414       .  S
C203        H209   1.078       .  S
C204        N205   1.359       .  A
C204        H206   1.083       .  S
N205        C207   1.361       .  A
N205        C980   1.448       .  S
C207        H208   1.082       .  S
C212        C214   1.542       .  S
C212        C216   1.551       .  S
C212        C215   1.579       .  S
C212        C317   1.555       .  S
C213        C217   1.537       .  S
C213        C219   1.542       .  S
C213        C218   1.536       .  S
C213        C653   1.535       .  S
C214        C222   1.380       .  A
C214        C217   1.386       .  A
C215        C226   1.405       .  A
C215        C218   1.413       .  A
C216        C230   1.387       .  A
C216        C219   1.391       .  A
C217        C220   1.383       .  A
C218        C224   1.375       .  A
C219        C227   1.385       .  A
C220        N221   1.354       .  A
C220        H233   1.081       .  S
N221        C222   1.357       .  A
N221        C461   1.437       .  S
C222        H223   1.082       .  S
C224        N225   1.350       .  A
C224        H234   1.082       .  S
N225        C226   1.364       .  A
C226        H232   1.075       .  S
C227        N228   1.357       .  A
C227        H229   1.079       .  S
N228        C230   1.358       .  A
N228        C845   1.448       .  S
C230        H231   1.082       .  S
N235        N236   1.322   1_556  A
N235        N241   1.316       .  A
N235       Mn264   2.217   1_455  S
N236        C243   1.357       .  A
N237        N239   1.314       .  A
N237        N238   1.323       .  A
N237       Mn253   2.201   1_545  S
N238        C244   1.356       .  A
N239        N240   1.315       .  A
N239       Mn264   2.184   1_455  S
N240        C244   1.350       .  A
N241        N242   1.320   1_556  A
N241       Mn253   2.202   1_545  S
N242        C243   1.354       .  A
C243        C956   1.489       .  S
C244        C620   1.479       .  S
N245        N251   1.316       .  A
N245        N246   1.322       .  A
N245       Mn275   2.212   1_455  S
N246        C254   1.355       .  A
N247        N248   1.319   1_556  A
N247        N249   1.313       .  A
N247       Mn253   2.196       .  S
N248        C255   1.354       .  A
N249        N250   1.319   1_556  A
N249       Mn275   2.192   1_455  S
N250        C255   1.353       .  A
N251        N252   1.320       .  A
N251       Mn253   2.203       .  S
N252        C254   1.354       .  A
Mn253      Cl277   2.550   1_455  S
C254        C821   1.485       .  S
C255        C332   1.477       .  S
N256        N257   1.323       .  A
N256        N262   1.315       .  A
N256       Mn264   2.217       .  S
N257        C265   1.357       .  A
N258        N260   1.314       .  A
N258        N259   1.326   1_556  A
N258       Mn276   2.227   1_545  S
N259        C266   1.360       .  A
N260        N261   1.318   1_556  A
N260       Mn264   2.187       .  S
N261        C266   1.351       .  A
N262        N263   1.316       .  A
N262       Mn276   2.184   1_545  S
N263        C265   1.349       .  A
Mn264      Cl277   2.541   1_545  S
C265        C428   1.475       .  S
C266        C677   1.492       .  S
N267        N268   1.322   1_556  A
N267        N273   1.316       .  A
N267       Mn275   2.211       .  S
N268        C278   1.356       .  A
N269        N270   1.323       .  A
N269        N271   1.314       .  A
N269       Mn276   2.215       .  S
N270        C279   1.357       .  A
N271        N272   1.318       .  A
N271       Mn275   2.189       .  S
N272        C279   1.352       .  A
N273        N274   1.316   1_556  A
N273       Mn276   2.184       .  S
N274        C278   1.350       .  A
Mn275      Cl277   2.542       .  S
Mn276      Cl277   2.549       .  S
C278        C485   1.477       .  S
C279        C293   1.484       .  S
C280        C281   1.398       .  A
C280        C285   1.402       .  A
C280        H290   1.084       .  S
C281        C282   1.404       .  A
C281        C286   1.479       .  S
C282        C283   1.399       .  A
C282        O287   1.372       .  S
C283        C284   1.412       .  A
C283        H288   1.076       .  S
C284        C285   1.420       .  A
C285        O289   1.373       .  S
C286        C291   1.405       .  A
C286        C295   1.402       .  A
O287        H303   0.992       .  S
O289        H300   0.992       .  S
C291        C292   1.400       .  A
C291        O296   1.372       .  S
C292        C293   1.408       .  A
C292        H297   1.084       .  S
C293        C294   1.412       .  A
C294        C295   1.401       .  A
C294        O298   1.371       .  S
C295        H299   1.084       .  S
O296        H301   0.992       .  S
O298        H302   0.992       .  S
C304        C305   1.407       .  A
C304        C309   1.405       .  A
C304        H314   1.083       .  S
C305        C306   1.408       .  A
C305        C310   1.495       .  S
C306        C307   1.405       .  A
C306        O311   1.372       .  S
C307        C308   1.411       .  A
C307        H312   1.083       .  S
C308        C309   1.407       .  A
C309        O313   1.369       .  S
C310        C315   1.401       .  A
C310        C319   1.408       .  A
O311        H327   0.992       .  S
O313        H324   0.992       .  S
C315        C316   1.395       .  A
C315        O320   1.372       .  S
C316        C317   1.419       .  A
C316        H321   1.084       .  S
C317        C318   1.415       .  A
C318        C319   1.415       .  A
C318        O322   1.362       .  S
C319        H323   1.083       .  S
O320        H325   0.992       .  S
O322        H326   0.992       .  S
C328        C329   1.402       .  A
C328        C333   1.399       .  A
C328        H338   1.084       .  S
C329        C330   1.407       .  A
C329        C334   1.477       .  S
C330        C331   1.398       .  A
C330        O335   1.372       .  S
C331        C332   1.405       .  A
C331        H336   1.083       .  S
C332        C333   1.410       .  A
C333        O337   1.371       .  S
C334        C339   1.403       .  A
C334        C343   1.400       .  A
O335        H351   0.992       .  S
O337        H348   0.992       .  S
C339        C340   1.397       .  A
C339        O344   1.372       .  S
C340        C341   1.413       .  A
C340        H345   1.076       .  S
C341        C342   1.416       .  A
C342        C343   1.399       .  A
C342        O346   1.372       .  S
C343        H347   1.084       .  S
O344        H349   0.992       .  S
O346        H350   0.992       .  S
C352        C353   1.400       .  A
C352        C357   1.395       .  A
C352        H362   1.084       .  S
C353        C354   1.406       .  A
C353        C358   1.470       .  S
C354        C355   1.400       .  A
C354        O359   1.371       .  S
C355        C356   1.402       .  A
C355        H360   1.083       .  S
C356        C357   1.409       .  A
C357        O361   1.372       .  S
C358        C363   1.399       .  A
C358        C367   1.399       .  A
O359        H375   0.992       .  S
O361        H372   0.991       .  S
C363        C364   1.390       .  A
C363        O368   1.373       .  S
C364        C365   1.412       .  A
C364        H369   1.081       .  S
C365        C366   1.417       .  A
C366        C367   1.409       .  A
C366        O370   1.373       .  S
C367        H371   1.083       .  S
O368        H373   0.992       .  S
O370        H374   0.992   1_554  S
C376        C377   1.407       .  A
C376        C381   1.406       .  A
C376        H386   1.083       .  S
C377        C378   1.412       .  A
C377        C382   1.494       .  S
C378        C379   1.402       .  A
C378        O383   1.372       .  S
C379        C380   1.401       .  A
C379        H384   1.084       .  S
C380        C381   1.407       .  A
C381        O385   1.371       .  S
C382        C387   1.411       .  A
C382        C391   1.407       .  A
O383        H399   0.992       .  S
O385        H396   0.991       .  S
C387        C388   1.406       .  A
C387        O392   1.371       .  S
C388        C389   1.405       .  A
C388        H393   1.083       .  S
C389        C390   1.407       .  A
C390        C391   1.402       .  A
C390        O394   1.371       .  S
C391        H395   1.083       .  S
O392        H397   0.992       .  S
O394        H398   0.992       .  S
C400        C401   1.401       .  A
C400        C405   1.394       .  A
C400        H410   1.084       .  S
C401        C402   1.409       .  A
C401        C406   1.476       .  S
C402        C403   1.404       .  A
C402        O407   1.372       .  S
C403        C404   1.401       .  A
C403        H408   1.084       .  S
C404        C405   1.406       .  A
C405        O409   1.372       .  S
C406        C411   1.406       .  A
C406        C415   1.403       .  A
O407        H423   0.992       .  S
O409        H420   0.992       .  S
C411        C412   1.398       .  A
C411        O416   1.372       .  S
C412        C413   1.405       .  A
C412        H417   1.083       .  S
C413        C414   1.410       .  A
C414        C415   1.399       .  A
C414        O418   1.371       .  S
C415        H419   1.084       .  S
O416        H421   0.992       .  S
O418        H422   0.992       .  S
C424        C425   1.400       .  A
C424        C429   1.397       .  A
C424        H434   1.084       .  S
C425        C426   1.408       .  A
C425        C430   1.476       .  S
C426        C427   1.402       .  A
C426        O431   1.372       .  S
C427        C428   1.403       .  A
C427        H432   1.083       .  S
C428        C429   1.411       .  A
C429        O433   1.372       .  S
C430        C435   1.402       .  A
C430        C439   1.399       .  A
O431        H447   0.992       .  S
O433        H444   0.992       .  S
C435        C436   1.401       .  A
C435        O440   1.372       .  S
C436        C437   1.413       .  A
C436        H441   1.077       .  S
C437        C438   1.417       .  A
C438        C439   1.398       .  A
C438        O442   1.373       .  S
C439        H443   1.084       .  S
O440        H445   0.991       .  S
O442        H446   0.991       .  S
C448        C449   1.405       .  A
C448        C453   1.402       .  A
C448        H458   1.083       .  S
C449        C450   1.407       .  A
C449        C454   1.477       .  S
C450        C451   1.396       .  A
C450        O455   1.372       .  S
C451        C452   1.399       .  A
C451        H456   1.083       .  S
C452        C453   1.405       .  A
C453        O457   1.371       .  S
C454        C459   1.407       .  A
C454        C463   1.401       .  A
O455        H471   0.992       .  S
O457        H468   0.991       .  S
C459        C460   1.403       .  A
C459        O464   1.372       .  S
C460        C461   1.406       .  A
C460        H465   1.083       .  S
C461        C462   1.408       .  A
C462        C463   1.396       .  A
C462        O466   1.371       .  S
C463        H467   1.084       .  S
O464        H469   0.991       .  S
O466        H470   0.992       .  S
C472        C473   1.401       .  A
C472        C477   1.404       .  A
C472        H482   1.084       .  S
C473        C474   1.402       .  A
C473        C478   1.479       .  S
C474        C475   1.394       .  A
C474        O479   1.372       .  S
C475        C476   1.413       .  A
C475        H480   1.083       .  S
C476        C477   1.418       .  A
C477        O481   1.369       .  S
C478        C483   1.406       .  A
C478        C487   1.405       .  A
O479        H495   0.992       .  S
O481        H492   0.992       .  S
C483        C484   1.395       .  A
C483        O488   1.372       .  S
C484        C485   1.405       .  A
C484        H489   1.083       .  S
C485        C486   1.410       .  A
C486        C487   1.401       .  A
C486        O490   1.371       .  S
C487        H491   1.084       .  S
O488        H493   0.991       .  S
O490        H494   0.992       .  S
C496        C497   1.402       .  A
C496        C501   1.401       .  A
C496        H506   1.084       .  S
C497        C498   1.405       .  A
C497        C502   1.480       .  S
C498        C499   1.400       .  A
C498        O503   1.372       .  S
C499        C500   1.408       .  A
C499        H504   1.082       .  S
C500        C501   1.413       .  A
C501        O505   1.371       .  S
C502        C507   1.410       .  A
C502        C511   1.402       .  A
O503        H519   0.992       .  S
O505        H516   0.991       .  S
C507        C508   1.400       .  A
C507        O512   1.371       .  S
C508        C509   1.400       .  A
C508        H513   1.082       .  S
C509        C510   1.410       .  A
C510        C511   1.400       .  A
C510        O514   1.372       .  S
C511        H515   1.084       .  S
O512        H517   0.992       .  S
O514        H518   0.992       .  S
C520        C521   1.403       .  A
C520        C525   1.402       .  A
C520        H530   1.083       .  S
C521        C522   1.409       .  A
C521        C526   1.484       .  S
C522        C523   1.403       .  A
C522        O527   1.372       .  S
C523        C524   1.402       .  A
C523        H528   1.082       .  S
C524        C525   1.409       .  A
C525        O529   1.372       .  S
C526        C531   1.400       .  A
C526        C535   1.400       .  A
O527        H543   0.992       .  S
O529        H540   0.992       .  S
C531        C532   1.399       .  A
C531        O536   1.372       .  S
C532        C533   1.414       .  A
C532        H537   1.075       .  S
C533        C534   1.422       .  A
C534        C535   1.408       .  A
C534        O538   1.372       .  S
C535        H539   1.084       .  S
O536        H541   0.991       .  S
O538        H542   0.992       .  S
C544        C545   1.406       .  A
C544        C549   1.413       .  A
C544        H554   1.083       .  S
C545        C546   1.399       .  A
C545        C550   1.486       .  S
C546        C547   1.394       .  A
C546        O551   1.372       .  S
C547        C548   1.416       .  A
C547        H552   1.082       .  S
C548        C549   1.418       .  A
C549        O553   1.368       .  S
C550        C555   1.410       .  A
C550        C559   1.398       .  A
O551        H567   0.992       .  S
O553        H564   0.992       .  S
C555        C556   1.409       .  A
C555        O560   1.371       .  S
C556        C557   1.405       .  A
C556        H561   1.080       .  S
C557        C558   1.417       .  A
C558        C559   1.400       .  A
C558        O562   1.371       .  S
C559        H563   1.084       .  S
O560        H565   0.992       .  S
O562        H566   0.992       .  S
C568        C569   1.405       .  A
C568        C573   1.403       .  A
C568        H578   1.083       .  S
C569        C570   1.407       .  A
C569        C574   1.479       .  S
C570        C571   1.396       .  A
C570        O575   1.372       .  S
C571        C572   1.403       .  A
C571        H576   1.083       .  S
C572        C573   1.405       .  A
C573        O577   1.371       .  S
C574        C579   1.405       .  A
C574        C583   1.402       .  A
O575        H591   0.992       .  S
O577        H588   0.991       .  S
C579        C580   1.401       .  A
C579        O584   1.372       .  S
C580        C581   1.408       .  A
C580        H585   1.080       .  S
C581        C582   1.412       .  A
C582        C583   1.399       .  A
C582        O586   1.371       .  S
C583        H587   1.084       .  S
O584        H589   0.991       .  S
O586        H590   0.992       .  S
C592        C593   1.405       .  A
C592        C597   1.401       .  A
C592        H602   1.083       .  S
C593        C594   1.409       .  A
C593        C598   1.490       .  S
C594        C595   1.396       .  A
C594        O599   1.372       .  S
C595        C596   1.408       .  A
C595        H600   1.082       .  S
C596        C597   1.414       .  A
C597        O601   1.370       .  S
C598        C603   1.410       .  A
C598        C607   1.404       .  A
O599        H615   0.992       .  S
O601        H612   0.992       .  S
C603        C604   1.400       .  A
C603        O608   1.372       .  S
C604        C605   1.409       .  A
C604        H609   1.081       .  S
C605        C606   1.413       .  A
C606        C607   1.399       .  A
C606        O610   1.372       .  S
C607        H611   1.083       .  S
O608        H613   0.992       .  S
O610        H614   0.992       .  S
C616        C617   1.400       .  A
C616        C621   1.393       .  A
C616        H626   1.084       .  S
C617        C618   1.410       .  A
C617        C622   1.479       .  S
C618        C619   1.402       .  A
C618        O623   1.372       .  S
C619        C620   1.405       .  A
C619        H624   1.083       .  S
C620        C621   1.413       .  A
C621        O625   1.372       .  S
C622        C627   1.407       .  A
C622        C631   1.398       .  A
O623        H639   0.992       .  S
O625        H636   0.992       .  S
C627        C628   1.400       .  A
C627        O632   1.373       .  S
C628        C629   1.409       .  A
C628        H633   1.077       .  S
C629        C630   1.417       .  A
C630        C631   1.396       .  A
C630        O634   1.372       .  S
C631        H635   1.083       .  S
O632        H637   0.992       .  S
O634        H638   0.992       .  S
C640        C641   1.405       .  A
C640        C645   1.396       .  A
C640        H650   1.083       .  S
C641        C642   1.410       .  A
C641        C646   1.486       .  S
C642        C643   1.401       .  A
C642        O647   1.371       .  S
C643        C644   1.405       .  A
C643        H648   1.083       .  S
C644        C645   1.409       .  A
C645        O649   1.372       .  S
C646        C651   1.409       .  A
C646        C655   1.404       .  A
O647        H663   0.992       .  S
O649        H660   0.992       .  S
C651        C652   1.400       .  A
C651        O656   1.373       .  S
C652        C653   1.406       .  A
C652        H657   1.082       .  S
C653        C654   1.412       .  A
C654        C655   1.400       .  A
C654        O658   1.371       .  S
C655        H659   1.083       .  S
O656        H661   0.992       .  S
O658        H662   0.991       .  S
C664        C665   1.402       .  A
C664        C669   1.402       .  A
C664        H674   1.083       .  S
C665        C666   1.408       .  A
C665        C670   1.491       .  S
C666        C667   1.402       .  A
C666        O671   1.372       .  S
C667        C668   1.412       .  A
C667        H672   1.078       .  S
C668        C669   1.420       .  A
C669        O673   1.372       .  S
C670        C675   1.410       .  A
C670        C679   1.402       .  A
O671        H687   0.992       .  S
O673        H684   0.991       .  S
C675        C676   1.406       .  A
C675        O680   1.372       .  S
C676        C677   1.406       .  A
C676        H681   1.083       .  S
C677        C678   1.416       .  A
C678        C679   1.401       .  A
C678        O682   1.372       .  S
C679        H683   1.084       .  S
O680        H685   0.992       .  S
O682        H686   0.992       .  S
C688        C689   1.407       .  A
C688        C693   1.415       .  A
C688        H698   1.083       .  S
C689        C690   1.397       .  A
C689        C694   1.487       .  S
C690        C691   1.393       .  A
C690        O695   1.372       .  S
C691        C692   1.418       .  A
C691        H696   1.083       .  S
C692        C693   1.417       .  A
C693        O697   1.365       .  S
C694        C699   1.405       .  A
C694        C703   1.407       .  A
O695        H711   0.992       .  S
O697        H708   0.992       .  S
C699        C700   1.403       .  A
C699        O704   1.371       .  S
C700        C701   1.408       .  A
C700        H705   1.084       .  S
C701        C702   1.408       .  A
C702        C703   1.408       .  A
C702        O706   1.369       .  S
C703        H707   1.083       .  S
O704        H709   0.992       .  S
O706        H710   0.992       .  S
C712        C713   1.407       .  A
C712        C717   1.407       .  A
C712        H722   1.082       .  S
C713        C714   1.409       .  A
C713        C718   1.500       .  S
C714        C715   1.404       .  A
C714        O719   1.372       .  S
C715        C716   1.409       .  A
C715        H720   1.077       .  S
C716        C717   1.414       .  A
C717        O721   1.371       .  S
C718        C723   1.408       .  A
C718        C727   1.409       .  A
O719        H735   0.992       .  S
O721        H732   0.991       .  S
C723        C724   1.405       .  A
C723        O728   1.372       .  S
C724        C725   1.412       .  A
C724        H729   1.083       .  S
C725        C726   1.410       .  A
C726        C727   1.409       .  A
C726        O730   1.369       .  S
C727        H731   1.083       .  S
O728        H733   0.992       .  S
O730        H734   0.992       .  S
C736        C737   1.402       .  A
C736        C741   1.398       .  A
C736        H746   1.084       .  S
C737        C738   1.405       .  A
C737        C742   1.474       .  S
C738        C739   1.402       .  A
C738        O743   1.371       .  S
C739        C740   1.407       .  A
C739        H744   1.083       .  S
C740        C741   1.407       .  A
C741        O745   1.372       .  S
C742        C747   1.404       .  A
C742        C751   1.392       .  A
O743        H759   0.992       .  S
O745        H756   0.992       .  S
C747        C748   1.408       .  A
C747        O752   1.371       .  S
C748        C749   1.412       .  A
C748        H753   1.073       .  S
C749        C750   1.423       .  A
C750        C751   1.390       .  A
C750        O754   1.374       .  S
C751        H755   1.085       .  S
O752        H757   0.992       .  S
O754        H758   0.992       .  S
C760        C761   1.399       .  A
C760        C765   1.395       .  A
C760        H770   1.084       .  S
C761        C762   1.401       .  A
C761        C766   1.464       .  S
C762        C763   1.397       .  A
C762        O767   1.371       .  S
C763        C764   1.406       .  A
C763        H768   1.083       .  S
C764        C765   1.411       .  A
C765        O769   1.371       .  S
C766        C771   1.402       .  A
C766        C775   1.398       .  A
O767        H783   0.991       .  S
O769        H780   0.992       .  S
C771        C772   1.396       .  A
C771        O776   1.371       .  S
C772        C773   1.406       .  A
C772        H777   1.083       .  S
C773        C774   1.411       .  A
C774        C775   1.395       .  A
C774        O778   1.372       .  S
C775        H779   1.084       .  S
O776        H781   0.992       .  S
O778        H782   0.991       .  S
C784        C785   1.402       .  A
C784        C789   1.402       .  A
C784        H794   1.084       .  S
C785        C786   1.408       .  A
C785        C790   1.487       .  S
C786        C787   1.403       .  A
C786        O791   1.371       .  S
C787        C788   1.408       .  A
C787        H792   1.082       .  S
C788        C789   1.415       .  A
C789        O793   1.371       .  S
C790        C795   1.410       .  A
C790        C799   1.403       .  A
O791        H807   0.991       .  S
O793        H804   0.992       .  S
C795        C796   1.406       .  A
C795        O800   1.372       .  S
C796        C797   1.404       .  A
C796        H801   1.084       .  S
C797        C798   1.409       .  A
C798        C799   1.402       .  A
C798        O802   1.371       .  S
C799        H803   1.084       .  S
O800        H805   0.992       .  S
O802        H806   0.992       .  S
C808        C809   1.400       .  A
C808        C813   1.404       .  A
C808        H818   1.083       .  S
C809        C810   1.402       .  A
C809        C814   1.480       .  S
C810        C811   1.398       .  A
C810        O815   1.373       .  S
C811        C812   1.415       .  A
C811        H816   1.074       .  S
C812        C813   1.418       .  A
C813        O817   1.372       .  S
C814        C819   1.406       .  A
C814        C823   1.402       .  A
O815        H831   0.992       .  S
O817        H828   0.991       .  S
C819        C820   1.398       .  A
C819        O824   1.372       .  S
C820        C821   1.406       .  A
C820        H825   1.083       .  S
C821        C822   1.413       .  A
C822        C823   1.404       .  A
C822        O826   1.372       .  S
C823        H827   1.084       .  S
O824        H829   0.992       .  S
O826        H830   0.992       .  S
C832        C833   1.401       .  A
C832        C837   1.400       .  A
C832        H842   1.084       .  S
C833        C834   1.408       .  A
C833        C838   1.484       .  S
C834        C835   1.407       .  A
C834        O839   1.371       .  S
C835        C836   1.404       .  A
C835        H840   1.079       .  S
C836        C837   1.412       .  A
C837        O841   1.372       .  S
C838        C843   1.408       .  A
C838        C847   1.401       .  A
O839        H855   0.992       .  S
O841        H852   0.992       .  S
C843        C844   1.405       .  A
C843        O848   1.372       .  S
C844        C845   1.407       .  A
C844        H849   1.083       .  S
C845        C846   1.413       .  A
C846        C847   1.404       .  A
C846        O850   1.372       .  S
C847        H851   1.084       .  S
O848        H853   0.992       .  S
O850        H854   0.992       .  S
C856        C857   1.406       .  A
C856        C861   1.409       .  A
C856        H866   1.083       .  S
C857        C858   1.409       .  A
C857        C862   1.491       .  S
C858        C859   1.404       .  A
C858        O863   1.372       .  S
C859        C860   1.401       .  A
C859        H864   1.080       .  S
C860        C861   1.410       .  A
C861        O865   1.372       .  S
C862        C867   1.400       .  A
C862        C871   1.405       .  A
O863        H879   0.991       .  S
O865        H876   0.992       .  S
C867        C868   1.397       .  A
C867        O872   1.373       .  S
C868        C869   1.417       .  A
C868        H873   1.083       .  S
C869        C870   1.418       .  A
C870        C871   1.417       .  A
C870        O874   1.368       .  S
C871        H875   1.083       .  S
O872        H877   0.992       .  S
O874        H878   0.993       .  S
C880        C881   1.405       .  A
C880        C885   1.400       .  A
C880        H890   1.083       .  S
C881        C882   1.410       .  A
C881        C886   1.481       .  S
C882        C883   1.395       .  A
C882        O887   1.372       .  S
C883        C884   1.401       .  A
C883        H888   1.084       .  S
C884        C885   1.407       .  A
C885        O889   1.372       .  S
C886        C891   1.407       .  A
C886        C895   1.404       .  A
O887        H903   0.992       .  S
O889        H900   0.992       .  S
C891        C892   1.398       .  A
C891        O896   1.372       .  S
C892        C893   1.405       .  A
C892        H897   1.083       .  S
C893        C894   1.411       .  A
C894        C895   1.398       .  A
C894        O898   1.371       .  S
C895        H899   1.084       .  S
O896        H901   0.992       .  S
O898        H902   0.991       .  S
C904        C905   1.402       .  A
C904        C909   1.400       .  A
C904        H914   1.084       .  S
C905        C906   1.403       .  A
C905        C910   1.470       .  S
C906        C907   1.395       .  A
C906        O911   1.372       .  S
C907        C908   1.405       .  A
C907        H912   1.083       .  S
C908        C909   1.408       .  A
C909        O913   1.372       .  S
C910        C915   1.404       .  A
C910        C919   1.401       .  A
O911        H927   0.992       .  S
O913        H924   0.992       .  S
C915        C916   1.395       .  A
C915        O920   1.372       .  S
C916        C917   1.404       .  A
C916        H921   1.083       .  S
C917        C918   1.408       .  A
C918        C919   1.401       .  A
C918        O922   1.371       .  S
C919        H923   1.084       .  S
O920        H925   0.991       .  S
O922        H926   0.992       .  S
C928        C929   1.408       .  A
C928        C933   1.407       .  A
C928        H938   1.082       .  S
C929        C930   1.410       .  A
C929        C934   1.503       .  S
C930        C931   1.406       .  A
C930        O935   1.371       .  S
C931        C932   1.408       .  A
C931        H936   1.074       .  S
C932        C933   1.416       .  A
C933        O937   1.371       .  S
C934        C939   1.408       .  A
C934        C943   1.409       .  A
O935        H951   0.992       .  S
O937        H948   0.991       .  S
C939        C940   1.406       .  A
C939        O944   1.373       .  S
C940        C941   1.413       .  A
C940        H945   1.081       .  S
C941        C942   1.414       .  A
C942        C943   1.409       .  A
C942        O946   1.370       .  S
C943        H947   1.083       .  S
O944        H949   0.992       .  S
O946        H950   0.992       .  S
C952        C953   1.404       .  A
C952        C957   1.404       .  A
C952        H962   1.084       .  S
C953        C954   1.408       .  A
C953        C958   1.487       .  S
C954        C955   1.403       .  A
C954        O959   1.373       .  S
C955        C956   1.407       .  A
C955        H960   1.083       .  S
C956        C957   1.412       .  A
C957        O961   1.371       .  S
C958        C963   1.406       .  A
C958        C967   1.402       .  A
O959        H975   0.992       .  S
O961        H972   0.992       .  S
C963        C964   1.400       .  A
C963        O968   1.372       .  S
C964        C965   1.413       .  A
C964        H969   1.082       .  S
C965        C966   1.420       .  A
C966        C967   1.404       .  A
C966        O970   1.370       .  S
C967        H971   1.084       .  S
O968        H973   0.992       .  S
O970        H974   0.992       .  S
C976        C977   1.404       .  A
C976        C981   1.406       .  A
C976        H986   1.084       .  S
C977        C978   1.408       .  A
C977        C982   1.489       .  S
C978        C979   1.406       .  A
C978        O983   1.371       .  S
C979        C980   1.407       .  A
C979        H984   1.083       .  S
C980        C981   1.411       .  A
C981        O985   1.371       .  S
C982        C987   1.407       .  A
C982        C991   1.406       .  A
O983        H999   0.992       .  S
O985        H996   0.992       .  S
C987        C988   1.401       .  A
C987        O992   1.372       .  S
C988        C989   1.406       .  A
C988        H993   1.084       .  S
C989        C990   1.410       .  A
C990        C991   1.409       .  A
C990        O994   1.372       .  S
C991        H995   1.083       .  S
O992        H997   0.992       .  S
O994        H998   0.991       .  S
C1000      C1001   1.395       .  A
C1000      C1005   1.398       .  A
C1000      H1010   1.084       .  S
C1001      C1002   1.415       .  A
C1001      C1006   1.499       .  S
C1002      C1003   1.417       .  A
C1002      O1007   1.371       .  S
C1003      C1004   1.409       .  A
C1003      H1008   1.076       .  S
C1004      C1005   1.426       .  A
C1005      O1009   1.374       .  S
C1006      C1011   1.415       .  A
C1006      C1015   1.402       .  A
O1007      H1023   0.992       .  S
O1009      H1020   0.992       .  S
C1011      C1012   1.409       .  A
C1011      O1016   1.371       .  S
C1012      C1013   1.405       .  A
C1012      H1017   1.083       .  S
C1013      C1014   1.417       .  A
C1014      C1015   1.405       .  A
C1014      O1018   1.371       .  S
C1015      H1019   1.083       .  S
O1016      H1021   0.992       .  S
O1018      H1022   0.992       .  S
C1024      C1025   1.409       .  A
C1024      C1029   1.403       .  A
C1024      H1034   1.083       .  S
C1025      C1026   1.411       .  A
C1025      C1030   1.502       .  S
C1026      C1027   1.409       .  A
C1026      O1031   1.371       .  S
C1027      C1028   1.408       .  A
C1027      H1032   1.084       .  S
C1028      C1029   1.407       .  A
C1029      O1033   1.371       .  S
C1030      C1035   1.403       .  A
C1030      C1039   1.410       .  A
O1031      H1047   0.991       .  S
O1033      H1044   0.992       .  S
C1035      C1036   1.394       .  A
C1035      O1040   1.372       .  S
C1036      C1037   1.418       .  A
C1036      H1041   1.083       .  S
C1037      C1038   1.417       .  A
C1038      C1039   1.419       .  A
C1038      O1042   1.365       .  S
C1039      H1043   1.083       .  S
O1040      H1045   0.992       .  S
O1042      H1046   0.993       .  S
