geometry optimzed in LAMMPS
_audit_creation_date              2020-12-01 
_audit_creation_method            'lammps2cif' 
_symmetry_space_group_name_H-M    'P1' 
_symmetry_Int_Tables_number       1 
_symmetry_cell_setting            triclinic 
loop_ 
_symmetry_equiv_pos_as_xyz 
  x,y,z 
_cell_length_a                    52.68429566 
_cell_length_b                    52.69223361203111 
_cell_length_c                    47.55026723151242 
_cell_angle_alpha                 90.48722787573581 
_cell_angle_beta                  89.33894022765602 
_cell_angle_gamma                 120.01825278670465 
loop_ 
_atom_site_label 
_atom_site_type_symbol 
_atom_site_fract_x 
_atom_site_fract_y 
_atom_site_fract_z 
_atom_site_charge 
C1          C  0.23406292  0.36743454  0.14833418     0.79000
N2          N  0.23676907  0.34703856  0.13316473    -0.79300
C3          C  0.24296853  0.35054960  0.10526720     0.81400
N4          N  0.24637611  0.37480956  0.09202473    -0.79300
C5          C  0.24288588  0.39510577  0.10682127     0.81500
N6          N  0.23677715  0.39138127  0.13492430    -0.81000
C7          C  0.23844681  0.37091702  0.41027811     0.79000
N8          N  0.24137376  0.34983054  0.42366882    -0.79300
C9          C  0.24697930  0.35202839  0.45176930     0.81400
N10         N  0.24959644  0.37538993  0.46661596    -0.79300
C11         C  0.24592619  0.39605420  0.45340137     0.81500
N12         N  0.24032061  0.39362369  0.42548713    -0.81000
C13         C  0.09378080  0.36835738  0.41104287     0.79000
N14         N  0.07093862  0.34774014  0.42629456    -0.79300
C15         C  0.06868583  0.35110587  0.45435768     0.81400
N16         N  0.08966528  0.37536405  0.46762828    -0.79300
C17         C  0.11314840  0.39583419  0.45278701     0.81500
N18         N  0.11515563  0.39227423  0.42455772    -0.81000
C19         C  0.09726402  0.37113557  0.14892425     0.79000
N20         N  0.11768928  0.39459144  0.13428178    -0.79300
C21         C  0.11415401  0.39776299  0.10655104     0.81400
N22         N  0.08997036  0.37709698  0.09299707    -0.79300
C23         C  0.06967447  0.35309455  0.10727038     0.81500
N24         N  0.07338936  0.35019433  0.13513773    -0.81000
C25         C  0.09586293  0.23112603  0.14918907     0.79000
N26         N  0.11654024  0.22748628  0.13533578    -0.79300
C27         C  0.11404129  0.22133956  0.10727609     0.81400
N28         N  0.09066883  0.21872991  0.09292788    -0.79300
C29         C  0.07033236  0.22304654  0.10655669     0.81500
N30         N  0.07312236  0.22931157  0.13446264    -0.81000
C31         C  0.09733585  0.22932765  0.41128119     0.79000
N32         N  0.07337737  0.22627751  0.42542320    -0.79300
C33         C  0.06989121  0.22013069  0.45347143     0.81400
N34         N  0.09053783  0.21698069  0.46748870    -0.79300
C35         C  0.11484528  0.22069969  0.45353488     0.81500
N36         N  0.11807594  0.22692374  0.42568199    -0.81000
C37         C  0.35679579  0.11142849  0.41207825     0.79000
N38         N  0.37983295  0.13195278  0.42688934    -0.79300
C39         C  0.38295098  0.12814767  0.45450116     0.81400
N40         N  0.36261231  0.10342328  0.46783619    -0.79300
C41         C  0.33892377  0.08291550  0.45340660     0.81500
N42         N  0.33611781  0.08700484  0.42558260    -0.81000
C43         C  0.35581777  0.10817376  0.15066993     0.79000
N44         N  0.37982458  0.12906956  0.13679841    -0.79300
C45         C  0.38298145  0.12678773  0.10857631     0.81400
N46         N  0.36205967  0.10343976  0.09410821    -0.79300
C47         C  0.33772159  0.08287015  0.10778387     0.81500
N48         N  0.33469514  0.08543692  0.13585698    -0.81000
C49         C  0.35328271  0.24764589  0.14952530     0.79000
N50         N  0.37730329  0.25066449  0.13567284    -0.79300
C51         C  0.38145971  0.25747060  0.10787722     0.81400
N52         N  0.36143043  0.26135904  0.09364348    -0.79300
C53         C  0.33699335  0.25773951  0.10719070     0.81500
N54         N  0.33299617  0.25078575  0.13498197    -0.81000
C55         C  0.36040555  0.25135401  0.41053804     0.79000
N56         N  0.38343106  0.25432660  0.42560136    -0.79300
C57         C  0.38551683  0.26041329  0.45353722     0.81400
N58         N  0.36421164  0.26341031  0.46680891    -0.79300
C59         C  0.34062502  0.25970699  0.45205808     0.81500
N60         N  0.33878285  0.25366794  0.42403659    -0.81000
C61         C  0.21818942  0.10870694  0.41032893     0.79000
N62         N  0.21500983  0.12968212  0.42408818    -0.79300
C63         C  0.20849714  0.12717056  0.45210080     0.81400
N64         N  0.20510576  0.10348369  0.46653988    -0.79300
C65         C  0.20890172  0.08277458  0.45304971     0.81500
N66         N  0.21552108  0.08558039  0.42515071    -0.81000
C67         C  0.21870518  0.11240559  0.14911736     0.79000
N68         N  0.21473465  0.08781865  0.13567199    -0.79300
C69         C  0.20696662  0.08313349  0.10806006     0.81400
N70         N  0.20321441  0.10319146  0.09369445    -0.79300
C71         C  0.20778261  0.12807424  0.10685597     0.81500
N72         N  0.21555622  0.13254272  0.13434395    -0.81000
N73         N  0.24065181  0.28613497  0.47552536    -0.07300
N74         N  0.23414072  0.30025126  0.45680332    -0.59500
N75         N  0.29177980  0.27023472  0.49515762    -0.07000
N76         N  0.31878452  0.27558108  0.49037757    -0.61600
N77         N  0.27401014  0.25281612  0.47555853    -0.06600
N78         N  0.28854228  0.24630603  0.45683860    -0.59400
N79         N  0.25800877  0.30424064  0.49496699    -0.06300
N80         N  0.26325050  0.33113712  0.49006004    -0.61900
C81         C  0.24825473  0.32819551  0.46613684     0.94800
C82         C  0.31632605  0.26053009  0.46639532     0.94600
N83         N  0.27198827  0.25214532  0.08222834    -0.07500
N84         N  0.28570528  0.24544425  0.10114535    -0.60000
N85         N  0.25620449  0.30339437  0.06219317    -0.05700
N86         N  0.26047709  0.33012701  0.06653935    -0.61300
N87         N  0.23862732  0.28541372  0.08168063    -0.07600
N88         N  0.23090715  0.29935151  0.09980701    -0.60300
N89         N  0.29032118  0.26927309  0.06271192    -0.05300
N90         N  0.31710968  0.27424347  0.06785799    -0.61400
Mn91       Mn  0.27449203  0.28700051  0.02911703     1.18400
C92         C  0.31370948  0.25918571  0.09195527     0.96900
C93         C  0.24446332  0.32705885  0.09011328     0.97600
N94         N  0.21412112  0.19309174  0.47590191    -0.07600
N95         N  0.22098765  0.17885407  0.45721779    -0.63900
N96         N  0.16269336  0.20926781  0.49608350    -0.06400
N97         N  0.13583817  0.20445796  0.49184612    -0.64600
N98         N  0.18067679  0.22646868  0.47636394    -0.07100
N99         N  0.16648554  0.23336796  0.45814469    -0.64200
N100        N  0.19669113  0.17519831  0.49553911    -0.06000
N101        N  0.19173182  0.14829635  0.49074920    -0.64800
Mn102      Mn  0.22733122  0.23958457  0.47515206     1.10700
C103        C  0.20701398  0.15104278  0.46671386     0.98100
C104        C  0.13868379  0.21969123  0.46808751     0.98200
N105        N  0.17938073  0.22605692  0.08282060    -0.07100
N106        N  0.16547838  0.23325590  0.10159696    -0.62500
N107        N  0.19537897  0.17447985  0.06301510    -0.06400
N108        N  0.19071076  0.14776708  0.06796363    -0.59200
N109        N  0.21276868  0.19285696  0.08227317    -0.07700
N110        N  0.22000517  0.17923498  0.10079603    -0.62000
N111        N  0.16123072  0.20847163  0.06357799    -0.06700
N112        N  0.13444140  0.20374753  0.06868324    -0.59200
Mn113      Mn  0.22570431  0.23913984  0.08281334     1.20200
Mn114      Mn  0.17715218  0.19017935  0.02994105     1.10100
Cl115      Cl  0.22581233  0.23860846  0.02944280    -0.87200
C116        C  0.13757114  0.21933108  0.09253411     0.95100
C117        C  0.20627252  0.15127414  0.09164150     0.94900
N118        N  0.00986388  0.28732595  0.08338496    -0.07300
N119        N  0.03063486  0.30148429  0.10202766    -0.59500
N120        N  0.44119211  0.26911043  0.06464662    -0.07000
N121        N  0.41918691  0.27396883  0.06941415    -0.61600
N122        N  0.44188953  0.25193996  0.08420266    -0.06600
N123        N  0.42076521  0.24509941  0.10284593    -0.59400
N124        N  0.01073130  0.30527500  0.06383210    -0.06300
N125        N  0.03260382  0.33215527  0.06864233    -0.61900
C126        C  0.04466927  0.32930707  0.09260095     0.94800
C127        C  0.40676284  0.25884798  0.09334026     0.94600
N128        N  0.44390115  0.25340195  0.47858198    -0.07500
N129        N  0.42349863  0.24697705  0.45971322    -0.60000
N130        N  0.01018378  0.30349982  0.49885015    -0.05700
N131        N  0.03195412  0.33042236  0.49389320    -0.61300
N132        N  0.00966774  0.28540614  0.47931228    -0.07600
N133        N  0.03057076  0.29947909  0.46054740    -0.60300
N134        N  0.44305147  0.27073950  0.49817833    -0.05300
N135        N  0.42151268  0.27613848  0.49316246    -0.61400
Mn136      Mn  0.47527781  0.28719334  0.03132352     1.18400
C137        C  0.40963981  0.26108456  0.46905292     0.96900
C138        C  0.04437220  0.32738582  0.46990817     0.97600
N139        N  0.44253216  0.19262554  0.08416501    -0.07600
N140        N  0.42177108  0.17851614  0.10310516    -0.63900
N141        N  0.01088993  0.21058339  0.06373430    -0.06400
N142        N  0.03313987  0.20613498  0.06809108    -0.64600
N143        N  0.01014289  0.22808644  0.08322011    -0.07100
N144        N  0.03144194  0.23561524  0.10136458    -0.64200
N145        N  0.44193077  0.17456421  0.06456014    -0.06000
N146        N  0.42021968  0.14765521  0.06959780    -0.64800
Mn147      Mn  0.47558694  0.23908161  0.08455648     1.10700
C148        C  0.40800051  0.15059342  0.09376440     0.98100
C149        C  0.04566000  0.22195688  0.09165688     0.98200
N150        N  0.00982899  0.22592782  0.47844995    -0.07100
N151        N  0.03073337  0.23272174  0.45953869    -0.62500
N152        N  0.44246602  0.17545140  0.49735010    -0.06400
N153        N  0.42026848  0.14868845  0.49285342    -0.59200
N154        N  0.44321976  0.19358788  0.47807382    -0.07700
N155        N  0.42193212  0.17963051  0.45989832    -0.62000
N156        N  0.01047077  0.20852596  0.49776130    -0.06700
N157        N  0.03235832  0.20352576  0.49252983    -0.59200
Mn158      Mn  0.47693907  0.24007667  0.47747684     1.20200
Mn159      Mn  0.47587827  0.19049734  0.03079662     1.10100
Cl160      Cl  0.47569935  0.23888918  0.03109311    -0.87200
C161        C  0.04468644  0.21875781  0.46855445     0.95100
C162        C  0.40774494  0.15179308  0.46940823     0.94900
N163        N  0.23882156  0.45616407  0.08355255    -0.07300
N164        N  0.23115742  0.43493511  0.10199141    -0.59500
N165        N  0.29014442  0.02417173  0.06396912    -0.07000
N166        N  0.31697789  0.04608359  0.06869465    -0.61600
N167        N  0.27198397  0.02346610  0.08358680    -0.06600
N168        N  0.28596922  0.04445023  0.10222061    -0.59400
N169        N  0.25643376  0.45529737  0.06420994    -0.06300
N170        N  0.26072586  0.43300686  0.06888134    -0.61900
C171        C  0.24486098  0.42063236  0.09255857     0.94800
C172        C  0.31388143  0.05844736  0.09262649     0.94600
N173        N  0.27318544  0.02240506  0.47732688    -0.07500
N174        N  0.28737725  0.04323066  0.45859552    -0.60000
N175        N  0.25653550  0.45501682  0.49688505    -0.05700
N176        N  0.26161508  0.43312137  0.49232190    -0.61300
N177        N  0.23900618  0.45523276  0.47750665    -0.07600
N178        N  0.23213193  0.43396076  0.45921514    -0.60300
N179        N  0.29111142  0.02327954  0.49685565    -0.05300
N180        N  0.31799809  0.04523750  0.49192882    -0.61400
Mn181      Mn  0.27550051  0.48923134  0.03093338     1.18400
C182        C  0.31521321  0.05735127  0.46791454     0.96900
C183        C  0.24616041  0.42028962  0.46874040     0.97600
N184        N  0.21208745  0.02271907  0.08394602    -0.07600
N185        N  0.21881765  0.04359187  0.10273135    -0.63900
N186        N  0.16219817  0.45658159  0.06286953    -0.06400
N187        N  0.13520639  0.43475993  0.06757447    -0.64600
N188        N  0.17991620  0.45722416  0.08250329    -0.07100
N189        N  0.16555366  0.43638719  0.10106718    -0.64200
N190        N  0.19482804  0.02341010  0.06454080    -0.06000
N191        N  0.18983225  0.04529432  0.06961410    -0.64800
Mn192      Mn  0.22632625  0.49004548  0.08367519     1.10700
C193        C  0.20491977  0.05751813  0.09357861     0.98100
C194        C  0.13785263  0.42250376  0.09152579     0.98200
N195        N  0.17935566  0.45524339  0.47675024    -0.07100
N196        N  0.16515944  0.43446133  0.45792851    -0.62500
N197        N  0.19645968  0.02380822  0.49702734    -0.06400
N198        N  0.19188236  0.04591283  0.49215505    -0.59200
N199        N  0.21388804  0.02281195  0.47754027    -0.07700
N200        N  0.22121047  0.04373967  0.45891283    -0.62000
N201        N  0.16126573  0.45486119  0.49627159    -0.06700
N202        N  0.13429473  0.43330302  0.49133770    -0.59200
Mn203      Mn  0.22593919  0.48852923  0.47620056     1.20200
Mn204      Mn  0.17914905  0.49057075  0.02961105     1.10100
Cl205      Cl  0.22733624  0.48990151  0.03025396    -0.87200
C206        C  0.13716775  0.42090321  0.46729850     0.95100
C207        C  0.20751739  0.05803685  0.46827751     0.94900
C208        C  0.22379903  0.11040723  0.37940790    -0.04400
C209        C  0.23017325  0.09027583  0.36610223    -0.07000
C210        C  0.23347955  0.09030931  0.33688279    -0.22100
C211        C  0.23061416  0.11046013  0.32001943     0.23600
C212        C  0.22482161  0.13108972  0.33331061    -0.19700
C213        C  0.22157384  0.13110159  0.36266527    -0.09600
C214        C  0.23163077  0.10748693  0.28878838    -0.19900
C215        C  0.23542198  0.12834349  0.27017163    -0.24700
C216        C  0.23355306  0.12428132  0.23888172     0.25700
C217        C  0.23284566  0.14591098  0.22240366    -0.21500
C218        C  0.22885000  0.14238782  0.19330553    -0.11100
C219        C  0.22550409  0.11707565  0.17971099    -0.11700
C220        C  0.22752117  0.09596600  0.19591787    -0.04600
C221        C  0.23156437  0.09950561  0.22510505    -0.19700
H222        H  0.23219403  0.07407899  0.37822409     0.09400
H223        H  0.23785619  0.07412192  0.32734911     0.09400
H224        H  0.22173851  0.14660845  0.32123205     0.09100
H225        H  0.21650791  0.14681650  0.37214635     0.10200
H226        H  0.22854661  0.08671984  0.28117152     0.10300
H227        H  0.23915117  0.14929683  0.27806376     0.12200
H228        H  0.23466311  0.16539832  0.23217828     0.08700
H229        H  0.22775403  0.15933096  0.18157389     0.10800
H230        H  0.22543361  0.07637974  0.18614804     0.07400
H231        H  0.23280424  0.08254080  0.23650806     0.10200
C232        C  0.35932872  0.24609776  0.37970620    -0.04400
C233        C  0.38106234  0.24218168  0.36628235    -0.07000
C234        C  0.38112489  0.23887522  0.33709541    -0.22100
C235        C  0.35951360  0.23935467  0.32046318     0.23600
C236        C  0.33746330  0.24285418  0.33394357    -0.19700
C237        C  0.33733947  0.24604147  0.36320624    -0.09600
C238        C  0.36210535  0.23797792  0.28924968    -0.19900
C239        C  0.34103213  0.23411959  0.27095492    -0.24700
C240        C  0.34449092  0.23550811  0.23964741     0.25700
C241        C  0.32079433  0.23189944  0.22336645    -0.21500
C242        C  0.32336220  0.23514233  0.19412629    -0.11100
C243        C  0.34972293  0.24193584  0.18029622    -0.11700
C244        C  0.37313135  0.24451116  0.19638081    -0.04600
C245        C  0.37064949  0.24145459  0.22565629    -0.19700
H246        H  0.39833721  0.24202414  0.37826438     0.09400
H247        H  0.39843708  0.23631457  0.32742503     0.09400
H248        H  0.32068337  0.24404480  0.32218146     0.09100
H249        H  0.32035382  0.24915434  0.37281141     0.10200
H250        H  0.38265355  0.24065639  0.28138778     0.10300
H251        H  0.32007245  0.23018742  0.27905033     0.12200
H252        H  0.30030233  0.22713687  0.23336592     0.08700
H253        H  0.30477014  0.23273740  0.18241437     0.10800
H254        H  0.39375453  0.24967833  0.18644065     0.07400
H255        H  0.38959324  0.24434679  0.23689940     0.10200
C256        C  0.35528475  0.11554961  0.38136259    -0.04400
C257        C  0.37644729  0.14161506  0.36830462    -0.07000
C258        C  0.37705637  0.14471903  0.33912031    -0.22100
C259        C  0.35659643  0.12194177  0.32206162     0.23600
C260        C  0.33466190  0.09620726  0.33522455    -0.19700
C261        C  0.33401414  0.09314714  0.36451589    -0.09600
C262        C  0.36017557  0.12568307  0.29086376    -0.19900
C263        C  0.34154314  0.10621823  0.27199850    -0.24700
C264        C  0.34609222  0.10905540  0.24092142     0.25700
C265        C  0.32199970  0.09162909  0.22373144    -0.21500
C266        C  0.32514461  0.09186390  0.19453660    -0.11100
C267        C  0.35255995  0.10959055  0.18162575    -0.10200
C268        C  0.37673675  0.12743882  0.19869945    -0.04600
C269        C  0.37362268  0.12707115  0.22806431    -0.19700
H270        H  0.39307571  0.15951896  0.38055508     0.09400
H271        H  0.39408869  0.16485462  0.32978550     0.09400
H272        H  0.31835784  0.07789459  0.32328857     0.09100
H273        H  0.31735962  0.07282673  0.37385683     0.10200
H274        H  0.37923729  0.14546889  0.28327911     0.10300
H275        H  0.32155838  0.08724606  0.27924277     0.12200
H276        H  0.30058081  0.07747455  0.23296034     0.08700
H277        H  0.30601020  0.07790754  0.18207628     0.10800
H278        H  0.39822886  0.14109554  0.18943050     0.07400
H279        H  0.39298232  0.14027604  0.24044355     0.10200
C280        C  0.09698737  0.23558810  0.18019254    -0.04400
C281        C  0.07744601  0.24279223  0.19353097    -0.07000
C282        C  0.07636420  0.24439629  0.22282931    -0.22100
C283        C  0.09479602  0.23895967  0.23971180     0.23600
C284        C  0.11487220  0.23234157  0.22639315    -0.19700
C285        C  0.11603763  0.23085438  0.19696750    -0.09600
C286        C  0.09102240  0.23893249  0.27090352    -0.19900
C287        C  0.11069719  0.24025489  0.28963495    -0.24700
C288        C  0.10661663  0.23914141  0.32088629     0.25700
C289        C  0.13024763  0.24362368  0.33770741    -0.21500
C290        C  0.12739777  0.24121518  0.36695993    -0.11100
C291        C  0.10075518  0.23426132  0.38036034    -0.11700
C292        C  0.07724532  0.23051779  0.36371216    -0.04600
C293        C  0.08003354  0.23276272  0.33432656    -0.19700
H294        H  0.06250907  0.24671567  0.18134915     0.09400
H295        H  0.06069047  0.24952874  0.23237096     0.09400
H296        H  0.12908175  0.22732881  0.23841922     0.09100
H297        H  0.13119774  0.22503504  0.18742212     0.10200
H298        H  0.07126164  0.23835120  0.27840197     0.10300
H299        H  0.13120992  0.24262744  0.28192325     0.12200
H300        H  0.15099576  0.24861328  0.32814914     0.08700
H301        H  0.14608355  0.24442633  0.37904673     0.10800
H302        H  0.05638058  0.22500934  0.37331049     0.07400
H303        H  0.06100166  0.22875924  0.32250749     0.10200
C304        C  0.10088503  0.36910079  0.17969779    -0.04400
C305        C  0.12726279  0.38904485  0.19292791    -0.07000
C306        C  0.13011328  0.38874680  0.22212035    -0.22100
C307        C  0.10671483  0.36866929  0.23904963     0.23600
C308        C  0.08058313  0.34797663  0.22568136    -0.19700
C309        C  0.07777527  0.34822699  0.19639870    -0.09600
C310        C  0.11064827  0.37087453  0.27031797    -0.19900
C311        C  0.08920425  0.35525160  0.28925627    -0.24700
C312        C  0.09276296  0.35879320  0.32042928     0.25700
C313        C  0.07184084  0.33633185  0.33754668    -0.21500
C314        C  0.07273025  0.33920257  0.36681679    -0.11100
C315        C  0.09453313  0.36480719  0.37994599    -0.11700
C316        C  0.11588160  0.38718603  0.36290545    -0.04600
C317        C  0.11499536  0.38428876  0.33348203    -0.19700
H318        H  0.14568580  0.40528099  0.18078183     0.09400
H319        H  0.15061169  0.40477729  0.23158211     0.09400
H320        H  0.06202312  0.33162083  0.23744253     0.09100
H321        H  0.05720311  0.33242365  0.18692629     0.10200
H322        H  0.13229151  0.38659440  0.27793198     0.10300
H323        H  0.06771496  0.33887359  0.28200922     0.12200
H324        H  0.05441603  0.31649457  0.32819536     0.08700
H325        H  0.05591624  0.32141503  0.37911928     0.10800
H326        H  0.13288092  0.40727941  0.37224211     0.07400
H327        H  0.13118186  0.40247518  0.32118407     0.10200
C328        C  0.22981258  0.36392449  0.17933089    -0.04400
C329        C  0.22542343  0.33807139  0.19221473    -0.07000
C330        C  0.22414769  0.33544150  0.22145751    -0.22100
C331        C  0.22709611  0.35844445  0.23876164     0.23600
C332        C  0.23080655  0.38414908  0.22590788    -0.19700
C333        C  0.23200698  0.38675030  0.19652557    -0.09600
C334        C  0.22777193  0.35499732  0.26983918    -0.19900
C335        C  0.22555532  0.37274775  0.28909433    -0.24700
C336        C  0.22778656  0.37041278  0.32018554     0.25700
C337        C  0.22695055  0.39180242  0.33732056    -0.21500
C338        C  0.22992311  0.39159551  0.36643852    -0.11100
C339        C  0.23379508  0.36988090  0.37940675    -0.11700
C340        C  0.23409107  0.34806402  0.36245108    -0.04600
C341        C  0.23113301  0.34827283  0.33319450    -0.19700
H342        H  0.22352034  0.31992885  0.17973223     0.09400
H343        H  0.22127526  0.31539664  0.23061895     0.09400
H344        H  0.23377436  0.40274971  0.23819985     0.09100
H345        H  0.23558002  0.40702633  0.18733041     0.10200
H346        H  0.23033611  0.33689595  0.27676000     0.10300
H347        H  0.22209464  0.39025918  0.28197254     0.12200
H348        H  0.22430525  0.40907298  0.32810653     0.08700
H349        H  0.22945903  0.40874630  0.37873479     0.10800
H350        H  0.23697171  0.33098110  0.37172990     0.07400
H351        H  0.23167492  0.33107702  0.32120340     0.10200
C352        C  0.23985968  0.37055695  0.64902362     0.79000
N353        N  0.24210684  0.35001350  0.63362806    -0.79300
C354        C  0.24704427  0.35301687  0.60553228     0.81400
N355        N  0.24972527  0.37697509  0.59228775    -0.79300
C356        C  0.24668991  0.39745430  0.60725250     0.81500
N357        N  0.24167781  0.39416365  0.63559693    -0.81000
C358        C  0.23812624  0.37017002  0.91082158     0.79000
N359        N  0.24056602  0.34885973  0.92436493    -0.79300
C360        C  0.24662898  0.35130950  0.95239265     0.81400
N361        N  0.25014272  0.37516794  0.96703077    -0.79300
C362        C  0.24696605  0.39611255  0.95370638     0.81500
N363        N  0.24095200  0.39340581  0.92584812    -0.81000
C364        C  0.09929389  0.36691331  0.91159105     0.79000
N365        N  0.07577461  0.34678358  0.92645913    -0.79300
C366        C  0.07212998  0.35103017  0.95404387     0.81400
N367        N  0.09243884  0.37581430  0.96726498    -0.79300
C368        C  0.11657460  0.39592664  0.95283129     0.81500
N369        N  0.11990635  0.39138455  0.92505962    -0.81000
C370        C  0.09653711  0.37100511  0.65038457     0.79000
N371        N  0.11698456  0.39397939  0.63518668    -0.79300
C372        C  0.11357265  0.39629733  0.60727167     0.81400
N373        N  0.08932633  0.37523737  0.59408124    -0.79300
C374        C  0.06895669  0.35163579  0.60884231     0.81500
N375        N  0.07266212  0.34954548  0.63692677    -0.81000
C376        C  0.09496801  0.22770774  0.64967450     0.79000
N377        N  0.11651530  0.22582607  0.63540579    -0.79300
C378        C  0.11454493  0.22098257  0.60707085     0.81400
N379        N  0.09094868  0.21811522  0.59290017    -0.79300
C380        C  0.06983588  0.22084590  0.60695264     0.81500
N381        N  0.07203373  0.22564526  0.63509345    -0.81000
C382        C  0.09753919  0.22891875  0.91140299     0.79000
N383        N  0.07363364  0.22644466  0.92518191    -0.79300
C384        C  0.06979321  0.22044642  0.95326034     0.81400
N385        N  0.09001827  0.21704238  0.96770168    -0.79300
C386        C  0.11425527  0.22026071  0.95412652     0.81500
N387        N  0.11784335  0.22620431  0.92623297    -0.81000
C388        C  0.35837350  0.10915610  0.91155431     0.79000
N389        N  0.38105339  0.12989565  0.92660414    -0.79300
C390        C  0.38322968  0.12664463  0.95453919     0.81400
N391        N  0.36229441  0.10240943  0.96793223    -0.79300
C392        C  0.33894681  0.08180457  0.95326766     0.81500
N393        N  0.33704607  0.08518991  0.92511266    -0.81000
C394        C  0.35557636  0.10889024  0.64970866     0.79000
N395        N  0.37962960  0.12966573  0.63579266    -0.79300
C396        C  0.38308819  0.12703133  0.60768179     0.81400
N397        N  0.36235234  0.10341514  0.59332593    -0.79300
C398        C  0.33793156  0.08295311  0.60702729     0.81500
N399        N  0.33467913  0.08588903  0.63499360    -0.81000
C400        C  0.35417547  0.24926219  0.64931833     0.79000
N401        N  0.37830420  0.25209777  0.63576553    -0.79300
C402        C  0.38275076  0.25887623  0.60791510     0.81400
N403        N  0.36290818  0.26282327  0.59337342    -0.79300
C404        C  0.33840343  0.25936499  0.60662130     0.81500
N405        N  0.33417371  0.25253369  0.63441147    -0.81000
C406        C  0.35679263  0.24672746  0.91084400     0.79000
N407        N  0.38013592  0.24993256  0.92561062    -0.79300
C408        C  0.38281356  0.25660795  0.95348646     0.81400
N409        N  0.36180122  0.25995664  0.96694599    -0.79300
C410        C  0.33794006  0.25602935  0.95255749     0.81500
N411        N  0.33551085  0.24941850  0.92462488    -0.81000
C412        C  0.21373500  0.10633939  0.90948932     0.79000
N413        N  0.21075484  0.12748122  0.92322654    -0.79300
C414        C  0.20437947  0.12509098  0.95129914     0.81400
N415        N  0.20116886  0.10151462  0.96580483    -0.79300
C416        C  0.20490828  0.08074478  0.95239701     0.81500
N417        N  0.21119686  0.08331796  0.92443261    -0.81000
C418        C  0.21939264  0.11307067  0.64811977     0.79000
N419        N  0.21574160  0.08865395  0.63457004    -0.79300
C420        C  0.20828414  0.08411771  0.60688373     0.81400
N421        N  0.20451355  0.10420628  0.59253046    -0.79300
C422        C  0.20878903  0.12896475  0.60582098     0.81500
N423        N  0.21623679  0.13322328  0.63339051    -0.81000
N424        N  0.23950349  0.28501194  0.97634481    -0.07300
N425        N  0.23315425  0.29927854  0.95762666    -0.59500
N426        N  0.29022373  0.26832175  0.99581936    -0.07000
N427        N  0.31700523  0.27298533  0.99098725    -0.61600
N428        N  0.27219838  0.25092389  0.97634982    -0.06600
N429        N  0.28626504  0.24374763  0.95772518    -0.59400
N430        N  0.25699145  0.30305772  0.99573455    -0.06300
N431        N  0.26250595  0.33005287  0.99079723    -0.61900
C432        C  0.24751170  0.32725893  0.96690215     0.94800
C433        C  0.31407957  0.25753465  0.96712744     0.94600
N434        N  0.27334792  0.25345964  0.58135294    -0.07500
N435        N  0.28707982  0.24674898  0.60023911    -0.60000
N436        N  0.25775375  0.30486596  0.56149514    -0.05700
N437        N  0.26288898  0.33184152  0.56619249    -0.61300
N438        N  0.24022339  0.28699524  0.58107169    -0.07600
N439        N  0.23341186  0.30131066  0.59964972    -0.60300
N440        N  0.29170816  0.27069783  0.56189741    -0.05300
N441        N  0.31852494  0.27572889  0.56706994    -0.61400
Mn442      Mn  0.27578644  0.28845313  0.52837340     1.18400
C443        C  0.31511351  0.26058753  0.59111966     0.96900
C444        C  0.24745478  0.32909910  0.59007790     0.97600
N445        N  0.21198305  0.19156021  0.97629864    -0.07600
N446        N  0.21789121  0.17710307  0.95699814    -0.63900
N447        N  0.16136135  0.20834091  0.99710497    -0.06400
N448        N  0.13459707  0.20373841  0.99276346    -0.64600
N449        N  0.17949465  0.22565120  0.97753030    -0.07100
N450        N  0.16557725  0.23283922  0.95932830    -0.64200
N451        N  0.19462611  0.17368060  0.99598211    -0.06000
N452        N  0.18876531  0.14657661  0.99059816    -0.64800
Mn453      Mn  0.22579585  0.23827511  0.97600443     1.10700
C454        C  0.20341373  0.14916456  0.96615958     0.98100
C455        C  0.13776438  0.21923018  0.96909559     0.98200
N456        N  0.18058769  0.22745354  0.58196677    -0.07100
N457        N  0.16648101  0.23426320  0.60090338    -0.62500
N458        N  0.19660923  0.17574777  0.56223377    -0.06400
N459        N  0.19187674  0.14898446  0.56704277    -0.59200
N460        N  0.21394720  0.19404292  0.58155676    -0.07700
N461        N  0.22107822  0.18026266  0.60002260    -0.62000
N462        N  0.16251572  0.20982655  0.56267673    -0.06700
N463        N  0.13560638  0.20469991  0.56792809    -0.59200
Mn464      Mn  0.22701488  0.24050941  0.58205399     1.20200
Mn465      Mn  0.17863549  0.19150113  0.52912081     1.10100
Cl466      Cl  0.22719714  0.24000607  0.52865157    -0.87200
C467        C  0.13853665  0.22008397  0.59188607     0.95100
C468        C  0.20734666  0.15231798  0.59073090     0.94900
N469        N  0.00896064  0.28558181  0.58509587    -0.07300
N470        N  0.02978239  0.29977215  0.60374179    -0.59500
N471        N  0.44247571  0.27016470  0.56479134    -0.07000
N472        N  0.42070487  0.27534991  0.56967549    -0.61600
N473        N  0.44282595  0.25265455  0.58417410    -0.06600
N474        N  0.42171053  0.24591889  0.60282255    -0.59400
N475        N  0.00965722  0.30355529  0.56565402    -0.06300
N476        N  0.03147524  0.33045629  0.57052827    -0.61900
C477        C  0.04370236  0.32765957  0.59441305     0.94800
C478        C  0.40807301  0.26010305  0.59350051     0.94600
N479        N  0.44252828  0.25154033  0.97842368    -0.07500
N480        N  0.42186632  0.24444922  0.95964229    -0.60000
N481        N  0.01139168  0.30473713  0.99718175    -0.05700
N482        N  0.03401012  0.33131138  0.99261871    -0.61300
N483        N  0.01063139  0.28637216  0.97782255    -0.07600
N484        N  0.03224484  0.29992513  0.95959200    -0.60300
N485        N  0.44140953  0.26888291  0.99786895    -0.05300
N486        N  0.41941749  0.27360121  0.99279194    -0.61400
Mn487      Mn  0.47671365  0.28829802  0.53152952     1.18400
C488        C  0.40755419  0.25816484  0.96882219     0.96900
C489        C  0.04671138  0.32781242  0.96905183     0.97600
N490        N  0.44287892  0.19291441  0.58352826    -0.07600
N491        N  0.42206796  0.17870437  0.60239541    -0.63900
N492        N  0.01033169  0.20890627  0.56439663    -0.06400
N493        N  0.03257566  0.20439671  0.56856211    -0.64600
N494        N  0.00955505  0.22620489  0.58412016    -0.07100
N495        N  0.03081944  0.23344065  0.60227077    -0.64200
N496        N  0.44227646  0.17494391  0.56381073    -0.06000
N497        N  0.42050342  0.14800693  0.56871048    -0.64800
Mn498      Mn  0.47619024  0.23938079  0.58434696     1.10700
C499        C  0.40823217  0.15083057  0.59290882     0.98100
C500        C  0.04506919  0.21989314  0.59227674     0.98200
N501        N  0.00992536  0.22664198  0.97759505    -0.07100
N502        N  0.03074964  0.23316717  0.95867774    -0.62500
N503        N  0.44183498  0.17432265  0.99802575    -0.06400
N504        N  0.41984258  0.14746475  0.99344781    -0.59200
N505        N  0.44261243  0.19228764  0.97855041    -0.07700
N506        N  0.42159226  0.17817986  0.96018279    -0.62000
N507        N  0.01059417  0.20950255  0.99716964    -0.06700
N508        N  0.03239877  0.20437900  0.99212891    -0.59200
Mn509      Mn  0.47599578  0.23869292  0.97768513     1.20200
Mn510      Mn  0.47639210  0.19115068  0.53013936     1.10100
Cl511      Cl  0.47657670  0.23973920  0.53088271    -0.87200
C512        C  0.04462689  0.21926249  0.96799574     0.95100
C513        C  0.40752112  0.15040485  0.96975400     0.94900
N514        N  0.23917214  0.45634451  0.58300104    -0.07300
N515        N  0.23291034  0.43588055  0.60200471    -0.59500
N516        N  0.29044464  0.02367958  0.56363690    -0.07000
N517        N  0.31726699  0.04569399  0.56824198    -0.61600
N518        N  0.27227775  0.02307651  0.58320676    -0.06600
N519        N  0.28626341  0.04424333  0.60167127    -0.59400
N520        N  0.25678064  0.45582162  0.56343649    -0.06300
N521        N  0.26242198  0.43447450  0.56853116    -0.61900
C522        C  0.24742880  0.42234568  0.59270255     0.94800
C523        C  0.31416938  0.05823464  0.59204970     0.94600
N524        N  0.27261075  0.02277246  0.97777148    -0.07500
N525        N  0.28699027  0.04319186  0.95872336    -0.60000
N526        N  0.25781382  0.45507511  0.99768277    -0.05700
N527        N  0.26267748  0.43303604  0.99299014    -0.61300
N528        N  0.24092342  0.45593908  0.97797442    -0.07600
N529        N  0.23429622  0.43497492  0.95934653    -0.60300
N530        N  0.29049434  0.02356315  0.99730203    -0.05300
N531        N  0.31750108  0.04502963  0.99212009    -0.61400
Mn532      Mn  0.27453387  0.48950524  0.52967302     1.18400
C533        C  0.31486085  0.05692811  0.96794619     0.96900
C534        C  0.24779050  0.42078799  0.96897142     0.97600
N535        N  0.21272707  0.02304364  0.58337631    -0.07600
N536        N  0.21974370  0.04418615  0.60193519    -0.63900
N537        N  0.16110917  0.45506982  0.56302546    -0.06400
N538        N  0.13425548  0.43305896  0.56797862    -0.64600
N539        N  0.17916474  0.45591361  0.58241703    -0.07100
N540        N  0.16510464  0.43501866  0.60105782    -0.64200
N541        N  0.19566417  0.02385979  0.56383864    -0.06000
N542        N  0.19107626  0.04606197  0.56858080    -0.64800
Mn543      Mn  0.22559906  0.48945356  0.58312919     1.10700
C544        C  0.20622441  0.05840362  0.59248439     0.98100
C545        C  0.13725477  0.42085115  0.59180315     0.98200
N546        N  0.18178392  0.45684657  0.97675336    -0.07100
N547        N  0.16806925  0.43567944  0.95817812    -0.62500
N548        N  0.19522405  0.02345305  0.99747834    -0.06400
N549        N  0.18949331  0.04471676  0.99214901    -0.59200
N550        N  0.21279968  0.02275342  0.97795766    -0.07700
N551        N  0.21904116  0.04304042  0.95885287    -0.62000
N552        N  0.16337652  0.45635623  0.99598480    -0.06700
N553        N  0.13661419  0.43430969  0.99100601    -0.59200
Mn554      Mn  0.22843736  0.48979257  0.97683106     1.20200
Mn555      Mn  0.17724373  0.48906564  0.52958815     1.10100
Cl556      Cl  0.22582630  0.48913753  0.52965935    -0.87200
C557        C  0.13999004  0.42173988  0.96727219     0.95100
C558        C  0.20455861  0.05664824  0.96796144     0.94900
C559        C  0.21931489  0.10784958  0.87851595    -0.04400
C560        C  0.21904145  0.08414554  0.86439861    -0.07000
C561        C  0.22255624  0.08442323  0.83520079    -0.22100
C562        C  0.22662378  0.10840122  0.81907805     0.23600
C563        C  0.22768219  0.13258154  0.83319816    -0.19700
C564        C  0.22404957  0.13225391  0.86256049    -0.09600
C565        C  0.22768793  0.10595824  0.78773737    -0.19900
C566        C  0.23486162  0.12801697  0.76938029    -0.24700
C567        C  0.23306375  0.12419262  0.73806384     0.25700
C568        C  0.23306736  0.14619497  0.72159470    -0.21500
C569        C  0.22942315  0.14290397  0.69243122    -0.11100
C570        C  0.22579338  0.11749155  0.67879530    -0.11700
C571        C  0.22716154  0.09603371  0.69502770    -0.04600
C572        C  0.23085380  0.09934690  0.72425662    -0.19700
H573        H  0.21551379  0.06494474  0.87583029     0.09400
H574        H  0.22161483  0.06546816  0.82509301     0.09400
H575        H  0.23041582  0.15145557  0.82181624     0.09100
H576        H  0.22447151  0.15093904  0.87269005     0.10200
H577        H  0.22121631  0.08430578  0.77962502     0.10300
H578        H  0.24112424  0.14968055  0.77734945     0.12200
H579        H  0.23515495  0.16577066  0.73141973     0.08700
H580        H  0.22885722  0.16011853  0.68067034     0.10800
H581        H  0.22489778  0.07638638  0.68523433     0.07400
H582        H  0.23187997  0.08227838  0.73571728     0.10200
C583        C  0.35510843  0.24111557  0.87994672    -0.04400
C584        C  0.37652591  0.23698612  0.86612963    -0.07000
C585        C  0.37604664  0.23336823  0.83691593    -0.22100
C586        C  0.35427939  0.23388918  0.82054130     0.23600
C587        C  0.33228453  0.23719215  0.83446806    -0.19700
C588        C  0.33276234  0.24078660  0.86375945    -0.09600
C589        C  0.35608372  0.23156242  0.78922476    -0.19900
C590        C  0.33941231  0.23597153  0.77071489    -0.24700
C591        C  0.34300944  0.23647071  0.73943130     0.25700
C592        C  0.32101467  0.23623973  0.72283341    -0.21500
C593        C  0.32432356  0.23956972  0.69364911    -0.11100
C594        C  0.34983921  0.24330626  0.68010876    -0.11700
C595        C  0.37152437  0.24257280  0.69652736    -0.04600
C596        C  0.36823556  0.23928513  0.72583474    -0.19700
H597        H  0.39398780  0.23689087  0.87783393     0.09400
H598        H  0.39316008  0.23065104  0.82700775     0.09400
H599        H  0.31461931  0.23713452  0.82314696     0.09100
H600        H  0.31578472  0.24370903  0.87366071     0.10200
H601        H  0.37262262  0.22680849  0.78128391     0.10300
H602        H  0.32249051  0.24019609  0.77849106     0.12200
H603        H  0.30133255  0.23407034  0.73256330     0.08700
H604        H  0.30702167  0.23979880  0.68177846     0.10800
H605        H  0.39146912  0.24537983  0.68685144     0.07400
H606        H  0.38603519  0.24007505  0.73760046     0.10200
C607        C  0.35772723  0.11280917  0.88065882    -0.04400
C608        C  0.37724157  0.13986910  0.86810332    -0.07000
C609        C  0.37840854  0.14317881  0.83893080    -0.22100
C610        C  0.36010937  0.11963273  0.82140976     0.23600
C611        C  0.34028960  0.09253285  0.83393748    -0.19700
C612        C  0.33901594  0.08925700  0.86325024    -0.09600
C613        C  0.36365638  0.12409139  0.79033859    -0.19900
C614        C  0.34357229  0.10627999  0.77148241    -0.24700
C615        C  0.34720293  0.10945804  0.74025139     0.25700
C616        C  0.32387145  0.08931708  0.72356047    -0.21500
C617        C  0.32636459  0.08973875  0.69428137    -0.11100
C618        C  0.35234940  0.11040952  0.68070958    -0.10200
C619        C  0.37546699  0.13128478  0.69723420    -0.04600
C620        C  0.37301838  0.13081030  0.72666243    -0.19700
H621        H  0.39194825  0.15856492  0.88080511     0.09400
H622        H  0.39392686  0.16425615  0.82998900     0.09400
H623        H  0.32631412  0.07350458  0.82134412     0.09100
H624        H  0.32396854  0.06804641  0.87220314     0.10200
H625        H  0.38357647  0.14317071  0.78311838     0.10300
H626        H  0.32306328  0.08817705  0.77913392     0.12200
H627        H  0.30366563  0.07271455  0.73324285     0.08700
H628        H  0.30797534  0.07342356  0.68231930     0.10800
H629        H  0.39579368  0.14754455  0.68749197     0.07400
H630        H  0.39168806  0.14686768  0.73835276     0.10200
C631        C  0.09542354  0.23085657  0.68088510    -0.04400
C632        C  0.07149028  0.23027884  0.69495374    -0.07000
C633        C  0.07057752  0.23154279  0.72425483    -0.22100
C634        C  0.09361613  0.23371518  0.74050894     0.23600
C635        C  0.11787680  0.23467370  0.72656861    -0.19700
C636        C  0.11873732  0.23326109  0.69706535    -0.09600
C637        C  0.09034894  0.23333594  0.77175638    -0.19900
C638        C  0.11256408  0.24196297  0.79003799    -0.24700
C639        C  0.10835114  0.23984000  0.82119800     0.25700
C640        C  0.12932500  0.23807101  0.83763403    -0.21500
C641        C  0.12593018  0.23496232  0.86680539    -0.11100
C642        C  0.10150803  0.23378496  0.88047743    -0.11700
C643        C  0.08090479  0.23650080  0.86416056    -0.04600
C644        C  0.08430408  0.23958055  0.83485257    -0.19700
H645        H  0.05303626  0.22836786  0.68336388     0.09400
H646        H  0.05157632  0.23062749  0.73430152     0.09400
H647        H  0.13585370  0.23566651  0.73821291     0.09100
H648        H  0.13743219  0.23359762  0.68698599     0.10200
H649        H  0.06831713  0.22525778  0.77989737     0.10300
H650        H  0.13462627  0.24979677  0.78212364     0.12200
H651        H  0.14819665  0.23851972  0.82779620     0.08700
H652        H  0.14240418  0.23312693  0.87858267     0.10800
H653        H  0.06203643  0.23604123  0.87398133     0.07400
H654        H  0.06816029  0.24195287  0.82311377     0.10200
C655        C  0.10034689  0.37022474  0.68137567    -0.04400
C656        C  0.12398952  0.39415868  0.69478221    -0.07000
C657        C  0.12732469  0.39461862  0.72391270    -0.22100
C658        C  0.10738668  0.37112635  0.74066411     0.23600
C659        C  0.08380080  0.34687753  0.72736825    -0.19700
C660        C  0.08034810  0.34647609  0.69804411    -0.09600
C661        C  0.11132159  0.37402184  0.77184027    -0.19900
C662        C  0.09880306  0.35155115  0.79018868    -0.24700
C663        C  0.10126233  0.35543644  0.82143630     0.25700
C664        C  0.07964900  0.33336829  0.83837725    -0.21500
C665        C  0.07958906  0.33680572  0.86757427    -0.11100
C666        C  0.10135013  0.36240530  0.88079826    -0.11700
C667        C  0.12394118  0.38388877  0.86403368    -0.04600
C668        C  0.12397425  0.38044626  0.83471061    -0.19700
H669        H  0.13985670  0.41293888  0.68283271     0.09400
H670        H  0.14558385  0.41365347  0.73345761     0.09400
H671        H  0.06749394  0.32856398  0.73945301     0.09100
H672        H  0.06180485  0.32774146  0.68849985     0.10200
H673        H  0.12499666  0.39607209  0.77986362     0.10300
H674        H  0.08495502  0.32947399  0.78228806     0.12200
H675        H  0.06214598  0.31367616  0.82890263     0.08700
H676        H  0.06199342  0.31954754  0.87970083     0.10800
H677        H  0.14130480  0.40367285  0.87348101     0.07400
H678        H  0.14176903  0.39749779  0.82266373     0.10200
C679        C  0.23632075  0.36706706  0.68015051    -0.04400
C680        C  0.23772308  0.34392614  0.69323912    -0.07000
C681        C  0.23590294  0.34092894  0.72245370    -0.22100
C682        C  0.23238447  0.36074176  0.73961107     0.23600
C683        C  0.23060105  0.38379541  0.72660415    -0.19700
C684        C  0.23253736  0.38687101  0.69720568    -0.09600
C685        C  0.23230825  0.35715444  0.77077870    -0.19900
C686        C  0.22401446  0.37085275  0.78970865    -0.24700
C687        C  0.22636452  0.36890724  0.82078424     0.25700
C688        C  0.22799045  0.39166651  0.83756330    -0.21500
C689        C  0.23135225  0.39172100  0.86665290    -0.11100
C690        C  0.23295546  0.36880547  0.87995797    -0.11700
C691        C  0.23035427  0.34541535  0.86332729    -0.04600
C692        C  0.22704142  0.34540615  0.83405320    -0.19700
H693        H  0.24070621  0.32820499  0.68095710     0.09400
H694        H  0.23749253  0.32306005  0.73172156     0.09400
H695        H  0.22852730  0.40002528  0.73885670     0.09100
H696        H  0.23148222  0.40499921  0.68788739     0.10200
H697        H  0.24010155  0.34289875  0.77830092     0.10300
H698        H  0.21641687  0.38532530  0.78241950     0.12200
H699        H  0.22723556  0.40988953  0.82804089     0.08700
H700        H  0.23305441  0.41005308  0.87865060     0.10800
H701        H  0.23114405  0.32723764  0.87286935     0.07400
H702        H  0.22486824  0.32691552  0.82205249     0.10200
C703        C  0.23649400  0.86920925  0.14887086     0.79000
N704        N  0.23893014  0.84860848  0.13371909    -0.79300
C705        C  0.24520076  0.85214713  0.10578255     0.81400
N706        N  0.24882107  0.87653015  0.09257020    -0.79300
C707        C  0.24558159  0.89697153  0.10737433     0.81500
N708        N  0.23949640  0.89326070  0.13545684    -0.81000
C709        C  0.23833767  0.87115964  0.41061077     0.79000
N710        N  0.24109055  0.84998383  0.42402613    -0.79300
C711        C  0.24636497  0.85202728  0.45218858     0.81400
N712        N  0.24899998  0.87539139  0.46702158    -0.79300
C713        C  0.24559403  0.89619229  0.45377035     0.81500
N714        N  0.24015778  0.89386215  0.42580947    -0.81000
C715        C  0.09377741  0.86958481  0.41186705     0.79000
N716        N  0.07077541  0.84898895  0.42695594    -0.79300
C717        C  0.06863400  0.85197065  0.45509506     0.81400
N718        N  0.08988793  0.87590924  0.46859444    -0.79300
C719        C  0.11355065  0.89634260  0.45386166     0.81500
N720        N  0.11543895  0.89307731  0.42558125    -0.81000
C721        C  0.09835925  0.86979431  0.15029524     0.79000
N722        N  0.11845032  0.89295142  0.13513459    -0.79300
C723        C  0.11450117  0.89556725  0.10742942     0.81400
N724        N  0.09008272  0.87463281  0.09438842    -0.79300
C725        C  0.07006555  0.85083934  0.10915537     0.81500
N726        N  0.07427418  0.84846602  0.13703531    -0.81000
C727        C  0.09774440  0.73264176  0.14843578     0.79000
N728        N  0.11818661  0.72875723  0.13442205    -0.79300
C729        C  0.11476031  0.72120027  0.10664532     0.81400
N730        N  0.09065538  0.71740339  0.09275163    -0.79300
C731        C  0.07047491  0.72183457  0.10658505     0.81500
N732        N  0.07424484  0.72951962  0.13414837    -0.81000
C733        C  0.09814088  0.73129019  0.41055228     0.79000
N734        N  0.07390937  0.72792350  0.42447792    -0.79300
C735        C  0.06996257  0.72117691  0.45244080     0.81400
N736        N  0.09038884  0.71775275  0.46655521    -0.79300
C737        C  0.11493004  0.72175743  0.45290172     0.81500
N738        N  0.11863566  0.72859015  0.42515206    -0.81000
C739        C  0.35458456  0.61237621  0.41134869     0.79000
N740        N  0.37767380  0.63285993  0.42621195    -0.79300
C741        C  0.38114409  0.62863082  0.45367666     0.81400
N742        N  0.36110904  0.60359747  0.46675960    -0.79300
C743        C  0.33741657  0.58315674  0.45232315     0.81500
N744        N  0.33426181  0.58760955  0.42467343    -0.81000
C745        C  0.35412851  0.60978469  0.15012877     0.79000
N746        N  0.37853988  0.63036704  0.13655191    -0.79300
C747        C  0.38285389  0.62727639  0.10873323     0.81400
N748        N  0.36263400  0.60340878  0.09429176    -0.79300
C749        C  0.33789643  0.58308023  0.10764826     0.81500
N750        N  0.33377234  0.58647111  0.13533686    -0.81000
C751        C  0.35296386  0.74840588  0.14917349     0.79000
N752        N  0.37714669  0.75109626  0.13589045    -0.79300
C753        C  0.38187219  0.75785432  0.10806257     0.81400
N754        N  0.36226870  0.76196815  0.09326341    -0.79300
C755        C  0.33772297  0.75867219  0.10628923     0.81500
N756        N  0.33321505  0.75183751  0.13405227    -0.81000
C757        C  0.35893140  0.75142408  0.40986632     0.79000
N758        N  0.38225155  0.75442471  0.42452258    -0.79300
C759        C  0.38494433  0.76098283  0.45244202     0.81400
N760        N  0.36394754  0.76428486  0.46602019    -0.79300
C761        C  0.34013594  0.76054938  0.45168354     0.81500
N762        N  0.33773559  0.75413681  0.42374666    -0.81000
C763        C  0.22133923  0.61033746  0.41036038     0.79000
N764        N  0.21746637  0.63094018  0.42404644    -0.79300
C765        C  0.20948477  0.62766301  0.45173923     0.81400
N766        N  0.20520476  0.60346479  0.46590868    -0.79300
C767        C  0.20959410  0.58305166  0.45250942     0.81500
N768        N  0.21775383  0.58671575  0.42494974    -0.81000
C769        C  0.21940362  0.61271183  0.14853970     0.79000
N770        N  0.21589295  0.58848742  0.13470566    -0.79300
C771        C  0.20873228  0.58432265  0.10694263     0.81400
N772        N  0.20496129  0.60451062  0.09283024    -0.79300
C773        C  0.20901133  0.62906890  0.10634391     0.81500
N774        N  0.21634688  0.63309240  0.13400617    -0.81000
N775        N  0.23987557  0.78607342  0.47590669    -0.07300
N776        N  0.23347869  0.80023915  0.45714252    -0.59500
N777        N  0.29118499  0.77045821  0.49542460    -0.07000
N778        N  0.31827796  0.77607446  0.49048279    -0.61600
N779        N  0.27345381  0.75301627  0.47581352    -0.06600
N780        N  0.28805495  0.74677498  0.45695326    -0.59400
N781        N  0.25700111  0.80409588  0.49551193    -0.06300
N782        N  0.26221902  0.83099124  0.49066747    -0.61900
C783        C  0.24743479  0.82812771  0.46661729     0.94800
C784        C  0.31586858  0.76116168  0.46638739     0.94600
N785        N  0.27303124  0.75343623  0.08114077    -0.07500
N786        N  0.28662849  0.74638992  0.09984089    -0.60000
N787        N  0.25714344  0.80473000  0.06164802    -0.05700
N788        N  0.26193646  0.83157306  0.06651710    -0.61300
N789        N  0.23955246  0.78663285  0.08106065    -0.07600
N790        N  0.23235978  0.80063365  0.09966530    -0.60300
N791        N  0.29143494  0.77076393  0.06177071    -0.05300
N792        N  0.31818898  0.77554476  0.06682679    -0.61400
Mn793      Mn  0.27550864  0.78861038  0.02837781     1.18400
C794        C  0.31463753  0.76012044  0.09071307     0.96900
C795        C  0.24624848  0.82850056  0.09033280     0.97600
N796        N  0.21373405  0.69308890  0.47563100    -0.07600
N797        N  0.22107335  0.67914227  0.45702767    -0.63900
N798        N  0.16200414  0.70917700  0.49577559    -0.06400
N799        N  0.13527214  0.70470947  0.49135414    -0.64600
N800        N  0.18020997  0.72652100  0.47625437    -0.07100
N801        N  0.16636013  0.73387212  0.45806032    -0.64200
N802        N  0.19617069  0.67496212  0.49506155    -0.06000
N803        N  0.19159980  0.64818793  0.49018484    -0.64800
Mn804      Mn  0.22678206  0.73959992  0.47526993     1.10700
C805        C  0.20725545  0.65124176  0.46631363     0.98100
C806        C  0.13847395  0.72030259  0.46771097     0.98200
N807        N  0.18035032  0.72684427  0.08171313    -0.07100
N808        N  0.16628291  0.73372878  0.10056672    -0.62500
N809        N  0.19691633  0.67558152  0.06212995    -0.06400
N810        N  0.19216154  0.64886365  0.06726695    -0.59200
N811        N  0.21405891  0.69397200  0.08149790    -0.07700
N812        N  0.22102076  0.68033203  0.10029667    -0.62000
N813        N  0.16227768  0.70909246  0.06250614    -0.06700
N814        N  0.13533897  0.70392994  0.06774688    -0.59200
Mn815      Mn  0.22675339  0.74027700  0.08185586     1.20200
Mn816      Mn  0.17876019  0.69121013  0.02889123     1.10100
Cl817      Cl  0.22706622  0.73997150  0.02847027    -0.87200
C818        C  0.13833708  0.71944799  0.09164113     0.95100
C819        C  0.20739561  0.65233847  0.09118855     0.94900
N820        N  0.00934297  0.78524162  0.08590379    -0.07300
N821        N  0.03036969  0.79922398  0.10439500    -0.59500
N822        N  0.44220114  0.76953268  0.06578991    -0.07000
N823        N  0.42017696  0.77440971  0.07024443    -0.61600
N824        N  0.44260435  0.75224918  0.08538590    -0.06600
N825        N  0.42124314  0.74536415  0.10378668    -0.59400
N826        N  0.01017517  0.80333902  0.06653796    -0.06300
N827        N  0.03225778  0.83010081  0.07127186    -0.61900
C828        C  0.04451877  0.82709147  0.09500319     0.94800
C829        C  0.40742122  0.75921856  0.09404487     0.94600
N830        N  0.44302618  0.75344485  0.47788353    -0.07500
N831        N  0.42291972  0.74736338  0.45873654    -0.60000
N832        N  0.00947774  0.80401769  0.49890252    -0.05700
N833        N  0.03135753  0.83097351  0.49424205    -0.61300
N834        N  0.00915464  0.78605758  0.47930571    -0.07600
N835        N  0.03030683  0.80028955  0.46079184    -0.60300
N836        N  0.44216213  0.77077822  0.49748003    -0.05300
N837        N  0.42089057  0.77650319  0.49216599    -0.61400
Mn838      Mn  0.47642918  0.78752378  0.03262841     1.18400
C839        C  0.40921354  0.76169738  0.46787448     0.96900
C840        C  0.04406245  0.82813445  0.47036837     0.97600
N841        N  0.44323770  0.69284260  0.08517701    -0.07600
N842        N  0.42210693  0.67875740  0.10376204    -0.63900
N843        N  0.00998257  0.70835902  0.06481185    -0.06400
N844        N  0.03247814  0.70417853  0.06871503    -0.64600
N845        N  0.00928203  0.72570614  0.08451394    -0.07100
N846        N  0.03084219  0.73336552  0.10234721    -0.64200
N847        N  0.44283823  0.67479807  0.06564335    -0.06000
N848        N  0.42090320  0.64792750  0.07038855    -0.64800
Mn849      Mn  0.47625833  0.73932833  0.08590582     1.10700
C850        C  0.40833407  0.65088681  0.09430042     0.98100
C851        C  0.04516235  0.71996101  0.09225654     0.98200
N852        N  0.00988689  0.72676223  0.47798222    -0.07100
N853        N  0.03050176  0.73342005  0.45875754    -0.62500
N854        N  0.44080708  0.67517609  0.49697538    -0.06400
N855        N  0.41838785  0.64856071  0.49227920    -0.59200
N856        N  0.44187074  0.69348591  0.47771686    -0.07700
N857        N  0.42062672  0.67985566  0.45943386    -0.62000
N858        N  0.01079890  0.70948327  0.49726900    -0.06700
N859        N  0.03259610  0.70443396  0.49168783    -0.59200
Mn860      Mn  0.47581745  0.73976648  0.47719978     1.20200
Mn861      Mn  0.47700442  0.69082842  0.03211199     1.10100
Cl862      Cl  0.47662714  0.73913182  0.03249029    -0.87200
C863        C  0.04457998  0.71949497  0.46753676     0.95100
C864        C  0.40610493  0.65198438  0.46876423     0.94900
N865        N  0.23914452  0.95664380  0.08390816    -0.07300
N866        N  0.23253402  0.93584991  0.10259513    -0.59500
N867        N  0.29118993  0.52348915  0.06412440    -0.07000
N868        N  0.31796328  0.54553253  0.06894410    -0.61600
N869        N  0.27281036  0.52304018  0.08334941    -0.06600
N870        N  0.28651815  0.54428714  0.10176374    -0.59400
N871        N  0.25669959  0.95613325  0.06430598    -0.06300
N872        N  0.26201450  0.93450394  0.06904398    -0.61900
C873        C  0.24681892  0.92216378  0.09305410     0.94800
C874        C  0.31452849  0.55818679  0.09253064     0.94600
N875        N  0.27237904  0.52192367  0.47630784    -0.07500
N876        N  0.28623925  0.54276346  0.45752319    -0.60000
N877        N  0.25666592  0.95515422  0.49751182    -0.05700
N878        N  0.26149597  0.93311210  0.49284273    -0.61300
N879        N  0.23936198  0.95570214  0.47807908    -0.07600
N880        N  0.23239361  0.93452694  0.45965030    -0.60300
N881        N  0.29049916  0.52314116  0.49579333    -0.05300
N882        N  0.31721207  0.54535710  0.49075594    -0.61400
Mn883      Mn  0.27444427  0.98993176  0.03086613     1.18400
C884        C  0.31409494  0.55724526  0.46673171     0.96900
C885        C  0.24612615  0.92055552  0.46914156     0.97600
N886        N  0.21379023  0.52377354  0.08285364    -0.07600
N887        N  0.22056680  0.54470775  0.10159415    -0.63900
N888        N  0.16125074  0.95527972  0.06398139    -0.06400
N889        N  0.13456120  0.93285325  0.06860921    -0.64600
N890        N  0.17937500  0.95613577  0.08328897    -0.07100
N891        N  0.16557054  0.93483073  0.10153733    -0.64200
N892        N  0.19685943  0.52469402  0.06322637    -0.06000
N893        N  0.19214949  0.54680847  0.06810506    -0.64800
Mn894      Mn  0.22560636  0.98974477  0.08429932     1.10700
C895        C  0.20706457  0.55894475  0.09218389     0.98100
C896        C  0.13780625  0.92042758  0.09214636     0.98200
N897        N  0.17988677  0.95596866  0.47746037    -0.07100
N898        N  0.16564715  0.93496881  0.45883333    -0.62500
N899        N  0.19563611  0.52308975  0.49605556    -0.06400
N900        N  0.19141559  0.54546643  0.49127987    -0.59200
N901        N  0.21305231  0.52202958  0.47659098    -0.07700
N902        N  0.22072036  0.54315454  0.45811635    -0.62000
N903        N  0.16184104  0.95565457  0.49699608    -0.06700
N904        N  0.13488528  0.93395634  0.49227574    -0.59200
Mn905      Mn  0.22658545  0.98918633  0.47698348     1.20200
Mn906      Mn  0.17717876  0.98946808  0.03088830     1.10100
Cl907      Cl  0.22582908  0.98972706  0.03084670    -0.87200
C908        C  0.13769177  0.92135187  0.46836302     0.95100
C909        C  0.20725542  0.55767199  0.46748157     0.94900
C910        C  0.22792683  0.61259939  0.37956446    -0.04400
C911        C  0.23644980  0.59390478  0.36655042    -0.07000
C912        C  0.23950868  0.59362494  0.33725672    -0.22100
C913        C  0.23417064  0.61198364  0.32004651     0.23600
C914        C  0.22663464  0.63147408  0.33314606    -0.19700
C915        C  0.22376117  0.63188177  0.36251559    -0.09600
C916        C  0.23466614  0.60845810  0.28874752    -0.19900
C917        C  0.23518989  0.62776966  0.26987449    -0.24700
C918        C  0.23331050  0.62339265  0.23859989     0.25700
C919        C  0.23858015  0.64719032  0.22147575    -0.21500
C920        C  0.23479824  0.64389846  0.19230675    -0.11100
C921        C  0.22568743  0.61664400  0.17928903    -0.11700
C922        C  0.22126646  0.59296530  0.19622019    -0.04600
C923        C  0.22483334  0.59619412  0.22550596    -0.19700
H924        H  0.24011405  0.57890959  0.37895891     0.09400
H925        H  0.24542599  0.57843968  0.32794726     0.09400
H926        H  0.22176158  0.64569245  0.32094351     0.09100
H927        H  0.21707395  0.64649539  0.37175641     0.10200
H928        H  0.23470745  0.58901032  0.28121355     0.10300
H929        H  0.23722647  0.64815491  0.27747350     0.12200
H930        H  0.24517300  0.66842245  0.23077202     0.08700
H931        H  0.23864614  0.66271127  0.17998996     0.10800
H932        H  0.21411141  0.57161869  0.18695670     0.07400
H933        H  0.22002887  0.57704503  0.23765001     0.10200
C934        C  0.35657834  0.74513838  0.37913827    -0.04400
C935        C  0.37557270  0.73736589  0.36555375    -0.07000
C936        C  0.37391245  0.73237739  0.33648993    -0.22100
C937        C  0.35345359  0.73526824  0.32012038     0.23600
C938        C  0.33395362  0.74239468  0.33388203    -0.19700
C939        C  0.33554946  0.74725698  0.36296591    -0.09600
C940        C  0.35411134  0.73156133  0.28892209    -0.19900
C941        C  0.33860679  0.73761489  0.27043270    -0.24700
C942        C  0.34174404  0.73709028  0.23924358     0.25700
C943        C  0.31971373  0.73657693  0.22250456    -0.21500
C944        C  0.32295433  0.73928494  0.19328197    -0.11100
C945        C  0.34847008  0.74275496  0.17994975    -0.11700
C946        C  0.37016263  0.74230758  0.19657280    -0.04600
C947        C  0.36691915  0.73960611  0.22588119    -0.19700
H948        H  0.39187668  0.73524826  0.37734724     0.09400
H949        H  0.38909468  0.72672087  0.32668019     0.09400
H950        H  0.31738858  0.74440096  0.32261057     0.09100
H951        H  0.32046575  0.75306001  0.37272201     0.10200
H952        H  0.36885500  0.72437108  0.28094613     0.10300
H953        H  0.32314000  0.74395735  0.27804570     0.12200
H954        H  0.30011075  0.73469347  0.23214274     0.08700
H955        H  0.30566880  0.73933646  0.18122224     0.10800
H956        H  0.39012172  0.74498524  0.18705476     0.07400
H957        H  0.38476758  0.74076922  0.23788957     0.10200
C958        C  0.35259752  0.61684775  0.38072796    -0.04400
C959        C  0.37239471  0.64374528  0.36805053    -0.07000
C960        C  0.37261393  0.64735767  0.33893356    -0.22100
C961        C  0.35313050  0.62426418  0.32153411     0.23600
C962        C  0.33259296  0.59756725  0.33431889    -0.19700
C963        C  0.33228810  0.59401320  0.36354852    -0.09600
C964        C  0.35645064  0.62871455  0.29035487    -0.19900
C965        C  0.33798674  0.60939128  0.27125380    -0.24700
C966        C  0.34252515  0.61231588  0.24008653     0.25700
C967        C  0.31962757  0.59217549  0.22297654    -0.21500
C968        C  0.32318757  0.59197713  0.19384489    -0.11100
C969        C  0.34985004  0.61198595  0.18085010    -0.10200
C970        C  0.37257884  0.63286545  0.19775089    -0.04600
C971        C  0.36905961  0.63298819  0.22704871    -0.19700
H972        H  0.38823292  0.66197240  0.38055924     0.09400
H973        H  0.38859526  0.66820569  0.32990328     0.09400
H974        H  0.31723517  0.57892084  0.32207925     0.09100
H975        H  0.31673925  0.57300655  0.37256161     0.10200
H976        H  0.37527381  0.64884823  0.28309540     0.10300
H977        H  0.31831630  0.59004910  0.27848766     0.12200
H978        H  0.29893435  0.57602691  0.23225258     0.08700
H979        H  0.30508439  0.57569179  0.18156592     0.10800
H980        H  0.39343695  0.64856802  0.18845825     0.07400
H981        H  0.38753648  0.64873253  0.23918576     0.10200
C982        C  0.09992975  0.73891832  0.17919182    -0.04400
C983        C  0.08014753  0.74591126  0.19235309    -0.07000
C984        C  0.07957263  0.74855839  0.22158241    -0.22100
C985        C  0.09876021  0.74441457  0.23864008     0.23600
C986        C  0.11945302  0.73856457  0.22543870    -0.19700
C987        C  0.12008500  0.73599662  0.19603973    -0.09600
C988        C  0.09479933  0.74449623  0.26987156    -0.19900
C989        C  0.11410794  0.74554121  0.28892696    -0.24700
C990        C  0.10940037  0.74365263  0.32019297     0.25700
C991        C  0.13188225  0.74544868  0.33715900    -0.21500
C992        C  0.12839534  0.74216864  0.36633741    -0.11100
C993        C  0.10222587  0.73697770  0.37964071    -0.11700
C994        C  0.07990765  0.73596292  0.36287425    -0.04600
C995        C  0.08336592  0.73917786  0.33352525    -0.19700
H996        H  0.06446318  0.74863638  0.18012319     0.09400
H997        H  0.06350213  0.75322270  0.23096673     0.09400
H998        H  0.13446847  0.73479337  0.23755057     0.09100
H999        H  0.13559727  0.73057983  0.18663174     0.10200
H1000       H  0.07481402  0.74359039  0.27713673     0.10300
H1001       H  0.13463698  0.74775782  0.28147566     0.12200
H1002       H  0.15221434  0.74896353  0.32775236     0.08700
H1003       H  0.14622378  0.74328909  0.37842985     0.10800
H1004       H  0.05946593  0.73201630  0.37234013     0.07400
H1005       H  0.06527879  0.73757572  0.32164786     0.10200
C1006       C  0.10239097  0.86895929  0.18114482    -0.04400
C1007       C  0.12666512  0.89238235  0.19442867    -0.07000
C1008       C  0.12965681  0.89306903  0.22362456    -0.22100
C1009       C  0.10844263  0.87054231  0.24042504     0.23600
C1010       C  0.08468772  0.84648200  0.22716107    -0.19700
C1011       C  0.08169178  0.84575604  0.19784426    -0.09600
C1012       C  0.11215723  0.87296402  0.27154548    -0.19900
C1013       C  0.08959430  0.85983924  0.28990112    -0.24700
C1014       C  0.09253430  0.86252639  0.32111509     0.25700
C1015       C  0.06910348  0.84194540  0.33759244    -0.21500
C1016       C  0.06996197  0.84387591  0.36690789    -0.11100
C1017       C  0.09422108  0.86673909  0.38069914    -0.11700
C1018       C  0.11790392  0.88729995  0.36428270    -0.04600
C1019       C  0.11710025  0.88527339  0.33481547    -0.19700
H1020       H  0.14322205  0.91058774  0.18234479     0.09400
H1021       H  0.14836256  0.91165565  0.23318958     0.09400
H1022       H  0.06844204  0.82810602  0.23924218     0.09100
H1023       H  0.06294964  0.82719846  0.18832675     0.10200
H1024       H  0.13419748  0.88686465  0.27931486     0.10300
H1025       H  0.06760289  0.84625682  0.28183516     0.12200
H1026       H  0.04987094  0.82426378  0.32771411     0.08700
H1027       H  0.05123456  0.82763276  0.37872111     0.10800
H1028       H  0.13687470  0.90527130  0.37416247     0.07400
H1029       H  0.13540720  0.90202910  0.32303592     0.10200
C1030       C  0.23165986  0.86568996  0.17980341    -0.04400
C1031       C  0.22276058  0.83846289  0.19251359    -0.07000
C1032       C  0.22059026  0.83555902  0.22178363    -0.22100
C1033       C  0.22732488  0.85973421  0.23921066     0.23600
C1034       C  0.23565233  0.88691412  0.22645255    -0.19700
C1035       C  0.23757064  0.88974451  0.19711017    -0.09600
C1036       C  0.22696535  0.85580956  0.27033578    -0.19900
C1037       C  0.22850939  0.87558200  0.28945238    -0.24700
C1038       C  0.22957370  0.87226472  0.32047631     0.25700
C1039       C  0.22318278  0.88981554  0.33816463    -0.21500
C1040       C  0.22536984  0.88886232  0.36733407    -0.11100
C1041       C  0.23410476  0.87031700  0.37970228    -0.11700
C1042       C  0.24018644  0.85240839  0.36211078    -0.04600
C1043       C  0.23813287  0.85347139  0.33279863    -0.19700
H1044       H  0.21786417  0.81939616  0.17985212     0.09400
H1045       H  0.21410761  0.81435856  0.23087175     0.09400
H1046       H  0.24166487  0.90637288  0.23880087     0.09100
H1047       H  0.24470361  0.91107746  0.18802813     0.10200
H1048       H  0.22495978  0.83542919  0.27763095     0.10300
H1049       H  0.22824978  0.89495082  0.28240000     0.12200
H1050       H  0.21667410  0.90458387  0.32935406     0.08700
H1051       H  0.22044831  0.90294108  0.38019081     0.10800
H1052       H  0.24733040  0.83816261  0.37093680     0.07400
H1053       H  0.24407665  0.84015756  0.32001692     0.10200
C1054       C  0.23534667  0.86872466  0.64916590     0.79000
N1055       N  0.23796327  0.84813550  0.63416094    -0.79300
C1056       C  0.24422197  0.85149527  0.60623033     0.81400
N1057       N  0.24779248  0.87576232  0.59284746    -0.79300
C1058       C  0.24443860  0.89623190  0.60744817     0.81500
N1059       N  0.23820134  0.89263044  0.63553688    -0.81000
C1060       C  0.23726438  0.87129619  0.91100707     0.79000
N1061       N  0.24031186  0.85018458  0.92421893    -0.79300
C1062       C  0.24647435  0.85249194  0.95222183     0.81400
N1063       N  0.24956558  0.87603719  0.96713454    -0.79300
C1064       C  0.24582297  0.89676068  0.95409182     0.81500
N1065       N  0.23965839  0.89417354  0.92629836    -0.81000
C1066       C  0.09520392  0.86814292  0.91243230     0.79000
N1067       N  0.07249380  0.84735902  0.92769093    -0.79300
C1068       C  0.06999164  0.85090125  0.95569406     0.81400
N1069       N  0.09056120  0.87550381  0.96885886    -0.79300
C1070       C  0.11390011  0.89613248  0.95398966     0.81500
N1071       N  0.11616266  0.89238688  0.92586285    -0.81000
C1072       C  0.09513150  0.87227090  0.65035256     0.79000
N1073       N  0.11612322  0.89473521  0.63508701    -0.79300
C1074       C  0.11307665  0.89682474  0.60707104     0.81400
N1075       N  0.08869050  0.87600137  0.59383448    -0.79300
C1076       C  0.06781049  0.85285020  0.60872783     0.81500
N1077       N  0.07111261  0.85106202  0.63691216    -0.81000
C1078       C  0.09558976  0.72981762  0.64942826     0.79000
N1079       N  0.11639626  0.72646009  0.63541352    -0.79300
C1080       C  0.11390576  0.72050884  0.60727825     0.81400
N1081       N  0.09048608  0.71795665  0.59304772    -0.79300
C1082       C  0.07007467  0.72204732  0.60683919     0.81500
N1083       N  0.07280890  0.72799242  0.63478559    -0.81000
C1084       C  0.09488602  0.72468250  0.91104362     0.79000
N1085       N  0.07135558  0.72257121  0.92528978    -0.79300
C1086       C  0.06882666  0.71832290  0.95368426     0.81400
N1087       N  0.09002967  0.71633731  0.96792470    -0.79300
C1088       C  0.11398116  0.71936264  0.95384680     0.81500
N1089       N  0.11620822  0.72352637  0.92566895    -0.81000
C1090       C  0.36052313  0.60870536  0.91198156     0.79000
N1091       N  0.38328281  0.62957097  0.92690912    -0.79300
C1092       C  0.38570162  0.62629342  0.95483777     0.81400
N1093       N  0.36497129  0.60196672  0.96829600    -0.79300
C1094       C  0.34162589  0.58126823  0.95373020     0.81500
N1095       N  0.33946838  0.58468954  0.92565026    -0.81000
C1096       C  0.35497427  0.60758054  0.65016335     0.79000
N1097       N  0.37877930  0.62891379  0.63632606    -0.79300
C1098       C  0.38231925  0.62662877  0.60813657     0.81400
N1099       N  0.36189982  0.60295551  0.59364738    -0.79300
C1100       C  0.33772124  0.58202531  0.60720739     0.81500
N1101       N  0.33440163  0.58449916  0.63525163    -0.81000
C1102       C  0.35491583  0.75184922  0.64957175     0.79000
N1103       N  0.37853277  0.75386279  0.63569726    -0.79300
C1104       C  0.38208058  0.75923095  0.60758363     0.81400
N1105       N  0.36188191  0.76259787  0.59309533    -0.79300
C1106       C  0.33784783  0.75987380  0.60667952     0.81500
N1107       N  0.33444502  0.75441959  0.63475319    -0.81000
C1108       C  0.36083393  0.75151306  0.91109616     0.79000
N1109       N  0.38346008  0.75365020  0.92632107    -0.79300
C1110       C  0.38505579  0.75885721  0.95445884     0.81400
N1111       N  0.36371222  0.76188473  0.96768688    -0.79300
C1112       C  0.34053123  0.75899151  0.95275032     0.81500
N1113       N  0.33917345  0.75376409  0.92460037    -0.81000
C1114       C  0.21852913  0.60869051  0.90978042     0.79000
N1115       N  0.21504340  0.62957545  0.92339168    -0.79300
C1116       C  0.20930626  0.62756075  0.95155314     0.81400
N1117       N  0.20694452  0.60441930  0.96624397    -0.79300
C1118       C  0.21111336  0.58386639  0.95288059     0.81500
N1119       N  0.21698268  0.58620336  0.92485196    -0.81000
C1120       C  0.21681941  0.61090096  0.64788055     0.79000
N1121       N  0.21322400  0.58665655  0.63410237    -0.79300
C1122       C  0.20661584  0.58278752  0.60624293     0.81400
N1123       N  0.20347506  0.60328426  0.59194981    -0.79300
C1124       C  0.20764999  0.62788752  0.60547380     0.81500
N1125       N  0.21442212  0.63159191  0.63323960    -0.81000
N1126       N  0.24042735  0.78646994  0.97553331    -0.07300
N1127       N  0.23384837  0.80066983  0.95694676    -0.59500
N1128       N  0.29170504  0.77049066  0.99510252    -0.07000
N1129       N  0.31861977  0.77535929  0.99071547    -0.61600
N1130       N  0.27401906  0.75316332  0.97539771    -0.06600
N1131       N  0.28854096  0.74627243  0.95700067    -0.59400
N1132       N  0.25773851  0.80450605  0.99504400    -0.06300
N1133       N  0.26287439  0.83140691  0.99031745    -0.61900
C1134       C  0.24786552  0.82858033  0.96642560     0.94800
C1135       C  0.31622610  0.76013764  0.96685558     0.94600
N1136       N  0.27242334  0.75298792  0.58152047    -0.07500
N1137       N  0.28631052  0.74645508  0.60038801    -0.60000
N1138       N  0.25628752  0.80413229  0.56218848    -0.05700
N1139       N  0.26099657  0.83093585  0.56705961    -0.61300
N1140       N  0.23882209  0.78601686  0.58166235    -0.07600
N1141       N  0.23163079  0.79998830  0.60031518    -0.60300
N1142       N  0.29070709  0.77045425  0.56214461    -0.05300
N1143       N  0.31761187  0.77580281  0.56730207    -0.61400
Mn1144     Mn  0.27475802  0.78824437  0.52883040     1.18400
C1145       C  0.31433802  0.76062943  0.59127140     0.96900
C1146       C  0.24540702  0.82784778  0.59093664     0.97600
N1147       N  0.21418809  0.69327779  0.97536217    -0.07600
N1148       N  0.22109692  0.67915704  0.95654719    -0.63900
N1149       N  0.16266046  0.70904423  0.99607721    -0.06400
N1150       N  0.13570555  0.70401000  0.99206567    -0.64600
N1151       N  0.18047644  0.72648661  0.97637915    -0.07100
N1152       N  0.16602063  0.73328535  0.95836291    -0.64200
N1153       N  0.19700646  0.67528888  0.99508143    -0.06000
N1154       N  0.19228399  0.64847969  0.99020859    -0.64800
Mn1155     Mn  0.22724146  0.73983954  0.97493031     1.10700
C1156       C  0.20742515  0.65133031  0.96604891     0.98100
C1157       C  0.13826708  0.71933119  0.96847149     0.98200
N1158       N  0.17958070  0.72624020  0.58217242    -0.07100
N1159       N  0.16551227  0.73290554  0.60125776    -0.62500
N1160       N  0.19594211  0.67506420  0.56190653    -0.06400
N1161       N  0.19115825  0.64827175  0.56666481    -0.59200
N1162       N  0.21325850  0.69325597  0.58131971    -0.07700
N1163       N  0.22027982  0.67936963  0.59978762    -0.62000
N1164       N  0.16152622  0.70885903  0.56273804    -0.06700
N1165       N  0.13462507  0.70375059  0.56808757    -0.59200
Mn1166     Mn  0.22602543  0.73962687  0.58220806     1.20200
Mn1167     Mn  0.17785516  0.69097690  0.52883132     1.10100
Cl1168     Cl  0.22635218  0.73959693  0.52876876    -0.87200
C1169       C  0.13758637  0.71888421  0.59225073     0.95100
C1170       C  0.20653691  0.65146175  0.59040101     0.94900
N1171       N  0.00842475  0.78637414  0.58505408    -0.07300
N1172       N  0.02910645  0.80084941  0.60374523    -0.59500
N1173       N  0.44138437  0.76994852  0.56429572    -0.07000
N1174       N  0.41962916  0.77515277  0.56912512    -0.61600
N1175       N  0.44172137  0.75248774  0.58374591    -0.06600
N1176       N  0.42063168  0.74581200  0.60239118    -0.59400
N1177       N  0.00885728  0.80419905  0.56559677    -0.06300
N1178       N  0.03034568  0.83126448  0.57045946    -0.61900
C1179       C  0.04265731  0.82872993  0.59438476     0.94800
C1180       C  0.40701448  0.75996448  0.59297292     0.94600
N1181       N  0.44347726  0.75183820  0.97989544    -0.07500
N1182       N  0.42296954  0.74514512  0.96102889    -0.60000
N1183       N  0.01100898  0.80353809  0.99989248    -0.05700
N1184       N  0.03305673  0.83036438  0.99509804    -0.61300
N1185       N  0.01047172  0.78540919  0.98037747    -0.07600
N1186       N  0.03162090  0.79935626  0.96180558    -0.60300
N1187       N  0.44262786  0.76935966  0.99929312    -0.05300
N1188       N  0.42098955  0.77458024  0.99415526    -0.61400
Mn1189     Mn  0.47571757  0.78811821  0.53113987     1.18400
C1190       C  0.40902450  0.75925944  0.97018459     0.96900
C1191       C  0.04560623  0.82723010  0.97124232     0.97600
N1192       N  0.44158135  0.69273074  0.58349776    -0.07600
N1193       N  0.42103335  0.67852251  0.60262315    -0.63900
N1194       N  0.01078210  0.71010583  0.56409426    -0.06400
N1195       N  0.03306078  0.70568487  0.56832666    -0.64600
N1196       N  0.00985377  0.72732618  0.58382523    -0.07100
N1197       N  0.03109156  0.73463628  0.60201693    -0.64200
N1198       N  0.44085150  0.67471633  0.56376562    -0.06000
N1199       N  0.41928202  0.64776168  0.56891880    -0.64800
Mn1200     Mn  0.47497885  0.73918291  0.58408501     1.10700
C1201       C  0.40724805  0.65059480  0.59327113     0.98100
C1202       C  0.04544152  0.72118084  0.59205551     0.98200
N1203       N  0.00978750  0.72558068  0.97901708    -0.07100
N1204       N  0.03047551  0.73198116  0.95995951    -0.62500
N1205       N  0.44321999  0.67449385  0.99911176    -0.06400
N1206       N  0.42184013  0.64744332  0.99408182    -0.59200
N1207       N  0.44378998  0.69244834  0.97973808    -0.07700
N1208       N  0.42327746  0.67813207  0.96094783    -0.62000
N1209       N  0.01014792  0.70799286  0.99826825    -0.06700
N1210       N  0.03165645  0.70247882  0.99289277    -0.59200
Mn1211     Mn  0.47692132  0.73892506  0.97912437     1.20200
Mn1212     Mn  0.47484481  0.69070694  0.52999618     1.10100
Cl1213     Cl  0.47531299  0.73943324  0.53061337    -0.87200
C1214       C  0.04402113  0.71758822  0.96887541     0.95100
C1215       C  0.40970217  0.65023739  0.97019081     0.94900
N1216       N  0.23883640  0.95623718  0.58354729    -0.07300
N1217       N  0.23186937  0.93538733  0.60225252    -0.59500
N1218       N  0.29028587  0.52378805  0.56277128    -0.07000
N1219       N  0.31718482  0.54546938  0.56779153    -0.61600
N1220       N  0.27206216  0.52303812  0.58235439    -0.06600
N1221       N  0.28605479  0.54374294  0.60122327    -0.59400
N1222       N  0.25642626  0.95554768  0.56406582    -0.06300
N1223       N  0.26138435  0.93369738  0.56894850    -0.61900
C1224       C  0.24594810  0.92144808  0.59289530     0.94800
C1225       C  0.31403483  0.55762546  0.59186166     0.94600
N1226       N  0.27500855  0.52253942  0.97777760    -0.07500
N1227       N  0.28969983  0.54301611  0.95890408    -0.60000
N1228       N  0.25661677  0.95568148  0.99788395    -0.05700
N1229       N  0.26166501  0.93377342  0.99319541    -0.61300
N1230       N  0.23925121  0.95613574  0.97845889    -0.07600
N1231       N  0.23244419  0.93498965  0.96002775    -0.60300
N1232       N  0.29257433  0.52303857  0.99749507    -0.05300
N1233       N  0.31972722  0.54439881  0.99260302    -0.61400
Mn1234     Mn  0.27468263  0.98944051  0.53051635     1.18400
C1235       C  0.31744454  0.55649884  0.96838863     0.96900
C1236       C  0.24634580  0.92115386  0.96949020     0.97600
N1237       N  0.21226315  0.52260176  0.58239010    -0.07600
N1238       N  0.21897921  0.54360967  0.60101145    -0.63900
N1239       N  0.16136881  0.95564607  0.56343929    -0.06400
N1240       N  0.13443436  0.93365049  0.56800639    -0.64600
N1241       N  0.17919268  0.95618574  0.58291076    -0.07100
N1242       N  0.16486960  0.93503459  0.60125480    -0.64200
N1243       N  0.19501985  0.52318451  0.56290855    -0.06000
N1244       N  0.19001017  0.54509178  0.56773960    -0.64800
Mn1245     Mn  0.22571718  0.98961633  0.58391104     1.10700
C1246       C  0.20509612  0.55748448  0.59163816     0.98100
C1247       C  0.13711916  0.92107396  0.59168848     0.98200
N1248       N  0.17960398  0.95616275  0.97780419    -0.07100
N1249       N  0.16558729  0.93536904  0.95896790    -0.62500
N1250       N  0.19840066  0.52468481  0.99655066    -0.06400
N1251       N  0.19406665  0.54695266  0.99179651    -0.59200
N1252       N  0.21609017  0.52381002  0.97728483    -0.07700
N1253       N  0.22381558  0.54503405  0.95888186    -0.62000
N1254       N  0.16141941  0.95553387  0.99735134    -0.06700
N1255       N  0.13454905  0.93378727  0.99241119    -0.59200
Mn1256     Mn  0.22610805  0.98947468  0.97740675     1.20200
Mn1257     Mn  0.17785383  0.98979533  0.53034469     1.10100
Cl1258     Cl  0.22622293  0.98952835  0.53044278    -0.87200
C1259       C  0.13760661  0.92154568  0.96834817     0.95100
C1260       C  0.21011646  0.55936492  0.96822161     0.94900
C1261       C  0.22305696  0.60967739  0.87873791    -0.04400
C1262       C  0.23057629  0.59034448  0.86547473    -0.07000
C1263       C  0.23324665  0.58999086  0.83618010    -0.22100
C1264       C  0.22839523  0.60882393  0.81920682     0.23600
C1265       C  0.22115050  0.62844370  0.83252338    -0.19700
C1266       C  0.21868135  0.62892653  0.86189249    -0.09600
C1267       C  0.22985890  0.60609695  0.78792857    -0.19900
C1268       C  0.22818217  0.62431735  0.76921410    -0.24700
C1269       C  0.22780077  0.62051765  0.73802466     0.25700
C1270       C  0.23319373  0.64440569  0.72104483    -0.21500
C1271       C  0.23054544  0.64148905  0.69182019    -0.11100
C1272       C  0.22233969  0.61449823  0.67867942    -0.11700
C1273       C  0.21786368  0.59073924  0.69551137    -0.04600
C1274       C  0.22039289  0.59362462  0.72486344    -0.19700
H1275       H  0.23418767  0.57521394  0.87771417     0.09400
H1276       H  0.23879139  0.57459814  0.82671329     0.09400
H1277       H  0.21668115  0.64310656  0.82062398     0.09100
H1278       H  0.21264636  0.64394951  0.87134642     0.10200
H1279       H  0.23256554  0.58817737  0.78015899     0.10300
H1280       H  0.22739579  0.64337063  0.77671965     0.12200
H1281       H  0.23896553  0.66538190  0.73048799     0.08700
H1282       H  0.23440205  0.66034006  0.67956411     0.10800
H1283       H  0.21137699  0.56958879  0.68611290     0.07400
H1284       H  0.21543748  0.57443372  0.73703101     0.10200
C1285       C  0.36005266  0.74717361  0.88007943    -0.04400
C1286       C  0.38304888  0.74598927  0.86594993    -0.07000
C1287       C  0.38278544  0.74290233  0.83667448    -0.22100
C1288       C  0.35966463  0.74105365  0.82066517     0.23600
C1289       C  0.33627842  0.74154403  0.83488998    -0.19700
C1290       C  0.33657992  0.74469485  0.86417226    -0.09600
C1291       C  0.36112150  0.73882477  0.78938570    -0.19900
C1292       C  0.34419980  0.74338880  0.77134716    -0.24700
C1293       C  0.34700023  0.74333810  0.74008067     0.25700
C1294       C  0.32389945  0.74116335  0.72382825    -0.21500
C1295       C  0.32620536  0.74324815  0.69451220    -0.11100
C1296       C  0.35179318  0.74767102  0.68059161    -0.11700
C1297       C  0.37476716  0.74931426  0.69677200    -0.04600
C1298       C  0.37248623  0.74729309  0.72615961    -0.19700
H1299       H  0.40147063  0.74771531  0.87745429     0.09400
H1300       H  0.40099553  0.74237133  0.82644746     0.09400
H1301       H  0.31750029  0.73930279  0.82378173     0.09100
H1302       H  0.31835567  0.74523789  0.87432676     0.10200
H1303       H  0.37750209  0.73400965  0.78107184     0.10300
H1304       H  0.32762251  0.74795469  0.77950682     0.12200
H1305       H  0.30405397  0.73821323  0.73389556     0.08700
H1306       H  0.30801067  0.74178992  0.68280109     0.10800
H1307       H  0.39488010  0.75292005  0.68680168     0.07400
H1308       H  0.39116064  0.74984674  0.73773334     0.10200
C1309       C  0.35916559  0.61229488  0.88113310    -0.04400
C1310       C  0.37804507  0.63940620  0.86835314    -0.07000
C1311       C  0.37841058  0.64260327  0.83917936    -0.22100
C1312       C  0.35990417  0.61889666  0.82189348     0.23600
C1313       C  0.34059531  0.59178952  0.83466399    -0.19700
C1314       C  0.34015611  0.58860858  0.86396643    -0.09600
C1315       C  0.36299950  0.62306658  0.79075382    -0.19900
C1316       C  0.34239470  0.60548624  0.77214864    -0.24700
C1317       C  0.34597527  0.60810449  0.74083869     0.25700
C1318       C  0.32452059  0.58547559  0.72434710    -0.21500
C1319       C  0.32721168  0.58571802  0.69506299    -0.11100
C1320       C  0.35150348  0.60870806  0.68124422    -0.10200
C1321       C  0.37261702  0.63191566  0.69757537    -0.04600
C1322       C  0.36990682  0.63169859  0.72700047    -0.19700
H1323       H  0.39290291  0.65820061  0.88086563     0.09400
H1324       H  0.39354878  0.66369506  0.83002441     0.09400
H1325       H  0.32648298  0.57269053  0.82220118     0.09100
H1326       H  0.32551802  0.56736265  0.87308048     0.10200
H1327       H  0.38332889  0.64144367  0.78323543     0.10300
H1328       H  0.32183710  0.58766286  0.78008135     0.12200
H1329       H  0.30573197  0.56712015  0.73420263     0.08700
H1330       H  0.31035550  0.56749712  0.68330777     0.10800
H1331       H  0.39148265  0.65011273  0.68766769     0.07400
H1332       H  0.38674746  0.65003089  0.73851855     0.10200
C1333       C  0.09680553  0.73448240  0.68044473    -0.04400
C1334       C  0.07532879  0.73867045  0.69413535    -0.07000
C1335       C  0.07497565  0.74117478  0.72340012    -0.22100
C1336       C  0.09585951  0.73931247  0.73990243     0.23600
C1337       C  0.11805848  0.73617877  0.72623898    -0.19700
C1338       C  0.11845672  0.73372706  0.69684930    -0.09600
C1339       C  0.09354230  0.74076045  0.77112410    -0.19900
C1340       C  0.10513205  0.72976339  0.78911974    -0.24700
C1341       C  0.10216778  0.73001603  0.82031872     0.25700
C1342       C  0.12259473  0.72714930  0.83657855    -0.21500
C1343       C  0.12038161  0.72600163  0.86585259    -0.11100
C1344       C  0.09737810  0.72731865  0.87984791    -0.11700
C1345       C  0.07678071  0.73019233  0.86363878    -0.04600
C1346       C  0.07914233  0.73156153  0.83415512    -0.19700
H1347       H  0.05840596  0.73963381  0.68228244     0.09400
H1348       H  0.05786576  0.74394951  0.73323815     0.09400
H1349       H  0.13526478  0.73574382  0.73801596     0.09100
H1350       H  0.13550658  0.73086033  0.68703838     0.10200
H1351       H  0.08093827  0.75035650  0.77936978     0.10300
H1352       H  0.11762457  0.72006984  0.78084507     0.12200
H1353       H  0.14041318  0.72571800  0.82655794     0.08700
H1354       H  0.13663141  0.72364106  0.87747604     0.10800
H1355       H  0.05869166  0.73107706  0.87368371     0.07400
H1356       H  0.06248145  0.73302117  0.82238521     0.10200
C1357       C  0.09838248  0.87180016  0.68139823    -0.04400
C1358       C  0.12388512  0.89372142  0.69449094    -0.07000
C1359       C  0.12651149  0.89485416  0.72373735    -0.22100
C1360       C  0.10393401  0.87401574  0.74082333     0.23600
C1361       C  0.07850735  0.85171902  0.72782102    -0.19700
C1362       C  0.07582737  0.85061788  0.69842775    -0.09600
C1363       C  0.10733569  0.87751795  0.77196861    -0.19900
C1364       C  0.09243190  0.85564976  0.79054357    -0.24700
C1365       C  0.09498525  0.85931401  0.82180204     0.25700
C1366       C  0.07360253  0.83685461  0.83861671    -0.21500
C1367       C  0.07412106  0.83946298  0.86792288    -0.11100
C1368       C  0.09618399  0.86465333  0.88136806    -0.11700
C1369       C  0.11823484  0.88676501  0.86466977    -0.04600
C1370       C  0.11772515  0.88414610  0.83526550    -0.19700
H1371       H  0.14178247  0.91042922  0.68218715     0.09400
H1372       H  0.14628461  0.91231659  0.73309364     0.09400
H1373       H  0.06024579  0.83563625  0.74016948     0.09100
H1374       H  0.05579958  0.83355492  0.68911093     0.10200
H1375       H  0.12299425  0.89920987  0.77955643     0.10300
H1376       H  0.07706623  0.83394337  0.78266751     0.12200
H1377       H  0.05600950  0.81732908  0.82900518     0.08700
H1378       H  0.05684797  0.82182777  0.87999649     0.10800
H1379       H  0.13573100  0.90633880  0.87427620     0.07400
H1380       H  0.13526882  0.90165692  0.82342912     0.10200
C1381       C  0.23025848  0.86516293  0.68014419    -0.04400
C1382       C  0.22644700  0.83972003  0.69344397    -0.07000
C1383       C  0.22336943  0.83672762  0.72264538    -0.22100
C1384       C  0.22410158  0.85903234  0.73956721     0.23600
C1385       C  0.22711919  0.88426614  0.72625122    -0.19700
C1386       C  0.23019185  0.88725477  0.69690132    -0.09600
C1387       C  0.22196983  0.85477922  0.77076337    -0.19900
C1388       C  0.22722293  0.87592983  0.78982130    -0.24700
C1389       C  0.22719786  0.87213252  0.82092933     0.25700
C1390       C  0.22612590  0.89318488  0.83836206    -0.21500
C1391       C  0.22848920  0.89227820  0.86750933    -0.11100
C1392       C  0.23220225  0.87031357  0.88017875    -0.11700
C1393       C  0.23250260  0.84868986  0.86288693    -0.04600
C1394       C  0.23011866  0.84959663  0.83358135    -0.19700
H1395       H  0.22618491  0.82209962  0.68133662     0.09400
H1396       H  0.22086447  0.81695352  0.73210454     0.09400
H1397       H  0.22714252  0.90183001  0.73812110     0.09100
H1398       H  0.23288871  0.90706858  0.68739053     0.10200
H1399       H  0.21645096  0.83319644  0.77816687     0.10300
H1400       H  0.23222509  0.89741390  0.78266628     0.12200
H1401       H  0.22391826  0.91079398  0.82934039     0.08700
H1402       H  0.22799512  0.90927582  0.88004309     0.10800
H1403       H  0.23542073  0.83152120  0.87189670     0.07400
H1404       H  0.23168518  0.83322063  0.82106881     0.10200
C1405       C  0.73608175  0.36862270  0.14939763     0.79000
N1406       N  0.73865420  0.34802085  0.13433063    -0.79300
C1407       C  0.74489276  0.35137551  0.10637913     0.81400
N1408       N  0.74851807  0.37569330  0.09303755    -0.79300
C1409       C  0.74524691  0.39621531  0.10765806     0.81500
N1410       N  0.73897026  0.39256979  0.13577087    -0.81000
C1411       C  0.73168255  0.36788637  0.41152670     0.79000
N1412       N  0.73576800  0.34738111  0.42464997    -0.79300
C1413       C  0.74275311  0.35020248  0.45246667     0.81400
N1414       N  0.74586904  0.37379859  0.46726313    -0.79300
C1415       C  0.74122757  0.39401410  0.45436509     0.81500
N1416       N  0.73404375  0.39083247  0.42673855    -0.81000
C1417       C  0.59509483  0.37059928  0.41114602     0.79000
N1418       N  0.57227277  0.34966250  0.42618101    -0.79300
C1419       C  0.56978699  0.35261861  0.45426328     0.81400
N1420       N  0.59048551  0.37686393  0.46778422    -0.79300
C1421       C  0.61394881  0.39766555  0.45316396     0.81500
N1422       N  0.61623662  0.39445776  0.42490552    -0.81000
C1423       C  0.59706511  0.36909404  0.14911843     0.79000
N1424       N  0.61763135  0.39202567  0.13406340    -0.79300
C1425       C  0.61374466  0.39505311  0.10642154     0.81400
N1426       N  0.58902006  0.37475029  0.09331522    -0.79300
C1427       C  0.56852514  0.35119098  0.10796162     0.81500
N1428       N  0.57259097  0.34843637  0.13580539    -0.81000
C1429       C  0.59316456  0.22560010  0.14919441     0.79000
N1430       N  0.61459603  0.22331286  0.13520032    -0.79300
C1431       C  0.61293438  0.21866860  0.10687207     0.81400
N1432       N  0.58975073  0.21643536  0.09240634    -0.79300
C1433       C  0.56876650  0.21958681  0.10623926     0.81500
N1434       N  0.57065558  0.22415482  0.13439082    -0.81000
C1435       C  0.59722922  0.22892186  0.41013990     0.79000
N1436       N  0.57337684  0.22639486  0.42408550    -0.79300
C1437       C  0.56974232  0.22043057  0.45217669     0.81400
N1438       N  0.59015024  0.21712795  0.46643044    -0.79300
C1439       C  0.61436117  0.22044086  0.45267669     0.81500
N1440       N  0.61770760  0.22633388  0.42478820    -0.81000
C1441       C  0.85717610  0.10991851  0.41246623     0.79000
N1442       N  0.88010451  0.13072352  0.42726352    -0.79300
C1443       C  0.88291349  0.12724420  0.45509094     0.81400
N1444       N  0.86228227  0.10282571  0.46857805    -0.79300
C1445       C  0.83867904  0.08220283  0.45417971     0.81500
N1446       N  0.83628119  0.08575685  0.42614348    -0.81000
C1447       C  0.85594009  0.10893935  0.15034783     0.79000
N1448       N  0.87994006  0.13006873  0.13659916    -0.79300
C1449       C  0.88325672  0.12810570  0.10833708     0.81400
N1450       N  0.86245366  0.10475261  0.09368521    -0.79300
C1451       C  0.83807405  0.08393812  0.10720093     0.81500
N1452       N  0.83495763  0.08626362  0.13532134    -0.81000
C1453       C  0.85466474  0.25055957  0.14876570     0.79000
N1454       N  0.87878447  0.25346357  0.13511826    -0.79300
C1455       C  0.88286695  0.25976394  0.10714001     0.81400
N1456       N  0.86262531  0.26304271  0.09257818    -0.79300
C1457       C  0.83811605  0.25940604  0.10595969     0.81500
N1458       N  0.83429587  0.25314844  0.13384351    -0.81000
C1459       C  0.85900495  0.25023599  0.41065414     0.79000
N1460       N  0.88211120  0.25298826  0.42556606    -0.79300
C1461       C  0.88418468  0.25856962  0.45367426     0.81400
N1462       N  0.86281003  0.26131182  0.46717698    -0.79300
C1463       C  0.83919043  0.25779456  0.45259629     0.81500
N1464       N  0.83737306  0.25224674  0.42447736    -0.81000
C1465       C  0.71297369  0.10494516  0.41005258     0.79000
N1466       N  0.71099225  0.12683366  0.42340913    -0.79300
C1467       C  0.70598217  0.12560449  0.45167641     0.81400
N1468       N  0.70308952  0.10244899  0.46672341    -0.79300
C1469       C  0.70593740  0.08103015  0.45356852     0.81500
N1470       N  0.71087219  0.08244164  0.42544547    -0.81000
C1471       C  0.71254128  0.10850226  0.14885291     0.79000
N1472       N  0.71022061  0.08485346  0.13489681    -0.79300
C1473       C  0.70555533  0.08189265  0.10669112     0.81400
N1474       N  0.70330861  0.10279635  0.09219827    -0.79300
C1475       C  0.70643270  0.12689391  0.10593436     0.81500
N1476       N  0.71108568  0.12963263  0.13407357    -0.81000
N1477       N  0.73941816  0.28531901  0.47530093    -0.07300
N1478       N  0.73201608  0.29904959  0.45696901    -0.59500
N1479       N  0.79063094  0.26941381  0.49520077    -0.07000
N1480       N  0.81751729  0.27421023  0.49077002    -0.61600
N1481       N  0.77288754  0.25195202  0.47560156    -0.06600
N1482       N  0.78728792  0.24489299  0.45725581    -0.59400
N1483       N  0.75656869  0.30353442  0.49478835    -0.06300
N1484       N  0.76078735  0.33015487  0.49024163    -0.61900
C1485       C  0.74538099  0.32690187  0.46649240     0.94800
C1486       C  0.81498147  0.25878574  0.46700599     0.94600
N1487       N  0.77250671  0.25257440  0.08135996    -0.07500
N1488       N  0.78655795  0.24605049  0.10004683    -0.60000
N1489       N  0.75621216  0.30358691  0.06204160    -0.05700
N1490       N  0.76116114  0.33048006  0.06696747    -0.61300
N1491       N  0.73878912  0.28556687  0.08160596    -0.07600
N1492       N  0.73188831  0.29970081  0.10035479    -0.60300
N1493       N  0.79064119  0.26989086  0.06180403    -0.05300
N1494       N  0.81757691  0.27516634  0.06667266    -0.61400
Mn1495     Mn  0.77444692  0.28743583  0.02855380     1.18400
C1496       C  0.81450285  0.26007743  0.09064217     0.96900
C1497       C  0.74578188  0.32756638  0.09096954     0.97600
N1498       N  0.71297514  0.19225445  0.47524539    -0.07600
N1499       N  0.71935216  0.17773793  0.45639265    -0.63900
N1500       N  0.66172557  0.20864211  0.49545979    -0.06400
N1501       N  0.63494594  0.20400425  0.49114689    -0.64600
N1502       N  0.67982117  0.22586596  0.47582374    -0.07100
N1503       N  0.66582871  0.23298155  0.45759992    -0.64200
N1504       N  0.69553493  0.17449539  0.49494339    -0.06000
N1505       N  0.69009762  0.14747157  0.49010090    -0.64800
Mn1506     Mn  0.72633840  0.23885528  0.47479526     1.10700
C1507       C  0.70507309  0.14992181  0.46596580     0.98100
C1508       C  0.63800943  0.21938726  0.46743909     0.98200
N1509       N  0.67932357  0.22554085  0.08231891    -0.07100
N1510       N  0.66496299  0.23207803  0.10121721    -0.62500
N1511       N  0.69600423  0.17454328  0.06222328    -0.06400
N1512       N  0.69100814  0.14771474  0.06698169    -0.59200
N1513       N  0.71326068  0.19270288  0.08167681    -0.07700
N1514       N  0.72002164  0.17868707  0.10025284    -0.62000
N1515       N  0.66141604  0.20795571  0.06290038    -0.06700
N1516       N  0.63440870  0.20258500  0.06800705    -0.59200
Mn1517     Mn  0.72597892  0.23912501  0.08235573     1.20200
Mn1518     Mn  0.67774108  0.19002620  0.02927467     1.10100
Cl1519     Cl  0.72608169  0.23872887  0.02889869    -0.87200
C1520       C  0.63706807  0.21776992  0.09201434     0.95100
C1521       C  0.70618411  0.15078726  0.09077014     0.94900
N1522       N  0.50855108  0.28553853  0.08406861    -0.07300
N1523       N  0.52928701  0.29965926  0.10275191    -0.59500
N1524       N  0.94270580  0.27129496  0.06397046    -0.07000
N1525       N  0.92076053  0.27626510  0.06872229    -0.61600
N1526       N  0.94320252  0.25403334  0.08356105    -0.06600
N1527       N  0.92209792  0.24730356  0.10219047    -0.59400
N1528       N  0.50917094  0.30355432  0.06472233    -0.06300
N1529       N  0.53092031  0.33047277  0.06969374    -0.61900
C1530       C  0.54309936  0.32755997  0.09356892     0.94800
C1531       C  0.90824982  0.26117557  0.09268039     0.94600
N1532       N  0.94303554  0.25207018  0.47907488    -0.07500
N1533       N  0.92267112  0.24551794  0.46006105    -0.60000
N1534       N  0.51104758  0.30449284  0.49825571    -0.05700
N1535       N  0.53288843  0.33143568  0.49356305    -0.61300
N1536       N  0.51050338  0.28656096  0.47852033    -0.07600
N1537       N  0.53150066  0.30082348  0.45985526    -0.60300
N1538       N  0.94202391  0.26941541  0.49858245    -0.05300
N1539       N  0.92038030  0.27463020  0.49334163    -0.61400
Mn1540     Mn  0.97694784  0.28913746  0.03050925     1.18400
C1541       C  0.90860814  0.25951977  0.46919324     0.96900
C1542       C  0.54536672  0.32864768  0.46952411     0.97600
N1543       N  0.94321793  0.19421932  0.08420587    -0.07600
N1544       N  0.92231041  0.18005558  0.10306019    -0.63900
N1545       N  0.50994836  0.20884801  0.06347873    -0.06400
N1546       N  0.53193015  0.20396437  0.06766989    -0.64600
N1547       N  0.50934951  0.22625627  0.08317151    -0.07100
N1548       N  0.53052850  0.23322572  0.10135558    -0.64200
N1549       N  0.94271873  0.17611573  0.06470062    -0.06000
N1550       N  0.92096442  0.14919851  0.06967332    -0.64800
Mn1551     Mn  0.97655180  0.24089454  0.08423732     1.10700
C1552       C  0.90853848  0.15207929  0.09372186     0.98100
C1553       C  0.54450639  0.21938700  0.09136372     0.98200
N1554       N  0.51005808  0.22671873  0.47720662    -0.07100
N1555       N  0.53087621  0.23341211  0.45822407    -0.62500
N1556       N  0.94219134  0.17448061  0.49844811    -0.06400
N1557       N  0.92004614  0.14770186  0.49376743    -0.59200
N1558       N  0.94297844  0.19259403  0.47911968    -0.07700
N1559       N  0.92186288  0.17867502  0.46077726    -0.62000
N1560       N  0.51055450  0.20916426  0.49643160    -0.06700
N1561       N  0.53225427  0.20394253  0.49107854    -0.59200
Mn1562     Mn  0.97639661  0.23899564  0.47844548     1.20200
Mn1563     Mn  0.97669509  0.19200648  0.03097086     1.10100
Cl1564     Cl  0.97672442  0.24050594  0.03077789    -0.87200
C1565       C  0.54460579  0.21919836  0.46713377     0.95100
C1566       C  0.90766974  0.15083455  0.47016946     0.94900
N1567       N  0.73867288  0.45559809  0.08327861    -0.07300
N1568       N  0.73216943  0.43504189  0.10221705    -0.59500
N1569       N  0.79099952  0.02422231  0.06377898    -0.07000
N1570       N  0.81768566  0.04656901  0.06831622    -0.61600
N1571       N  0.77270001  0.02352832  0.08324017    -0.06600
N1572       N  0.78644604  0.04493713  0.10155112    -0.59400
N1573       N  0.75626442  0.45499298  0.06375933    -0.06300
N1574       N  0.76168908  0.43347452  0.06885943    -0.61900
C1575       C  0.74652777  0.42133672  0.09298624     0.94800
C1576       C  0.81437277  0.05922525  0.09196818     0.94600
N1577       N  0.77253944  0.02256373  0.47858962    -0.07500
N1578       N  0.78685718  0.04320161  0.45971324    -0.60000
N1579       N  0.75547330  0.45448384  0.49768251    -0.05700
N1580       N  0.75906650  0.43162215  0.49313680    -0.61300
N1581       N  0.73841160  0.45561291  0.47832418    -0.07600
N1582       N  0.73032375  0.43401341  0.46016075    -0.60300
N1583       N  0.79040785  0.02330255  0.49810944    -0.05300
N1584       N  0.81738620  0.04501091  0.49304646    -0.61400
Mn1585     Mn  0.77407047  0.48894250  0.03015917     1.18400
C1586       C  0.81471905  0.05708607  0.46895302     0.96900
C1587       C  0.74316944  0.41917341  0.46962596     0.97600
N1588       N  0.71262399  0.02246650  0.08302742    -0.07600
N1589       N  0.71889496  0.04335772  0.10168709    -0.63900
N1590       N  0.66093341  0.45450758  0.06312939    -0.06400
N1591       N  0.63418018  0.43222520  0.06770218    -0.64600
N1592       N  0.67896688  0.45519129  0.08244589    -0.07100
N1593       N  0.66502699  0.43387687  0.10065957    -0.64200
N1594       N  0.69549451  0.02292043  0.06334684    -0.06000
N1595       N  0.69013978  0.04460705  0.06804244    -0.64800
Mn1596     Mn  0.72518622  0.48872592  0.08356412     1.10700
C1597       C  0.70489172  0.05702673  0.09206302     0.98100
C1598       C  0.63727919  0.41969387  0.09121161     0.98200
N1599       N  0.67982051  0.45689185  0.47773055    -0.07100
N1600       N  0.66574541  0.43638979  0.45865900    -0.62500
N1601       N  0.69519412  0.02316313  0.49803240    -0.06400
N1602       N  0.68997678  0.04482115  0.49304788    -0.59200
N1603       N  0.71293520  0.02256380  0.47866817    -0.07700
N1604       N  0.71982048  0.04331232  0.45996355    -0.62000
N1605       N  0.66167329  0.45619709  0.49734054    -0.06700
N1606       N  0.63472888  0.43468929  0.49217553    -0.59200
Mn1607     Mn  0.72642270  0.48967269  0.47758510     1.20200
Mn1608     Mn  0.67690340  0.48870959  0.03015601     1.10100
Cl1609     Cl  0.72544662  0.48874861  0.03011699    -0.87200
C1610       C  0.63773879  0.42267109  0.46792069     0.95100
C1611       C  0.70558330  0.05710160  0.46922568     0.94900
C1612       C  0.71626763  0.10470011  0.37897938    -0.04400
C1613       C  0.71394918  0.07981603  0.36534887    -0.07000
C1614       C  0.71499934  0.07848041  0.33603966    -0.22100
C1615       C  0.71864591  0.10200853  0.31949845     0.23600
C1616       C  0.72155537  0.12721010  0.33311853    -0.19700
C1617       C  0.72041454  0.12850853  0.36251088    -0.09600
C1618       C  0.71747623  0.09843555  0.28831956    -0.19900
C1619       C  0.72615810  0.12070281  0.27000268    -0.24700
C1620       C  0.72281389  0.11666968  0.23898770     0.25700
C1621       C  0.72209504  0.13861192  0.22312359    -0.21500
C1622       C  0.71880609  0.13594136  0.19397173    -0.11100
C1623       C  0.71642480  0.11130360  0.17982907    -0.11700
C1624       C  0.71750326  0.08942238  0.19564080    -0.04600
C1625       C  0.72073480  0.09207747  0.22489578    -0.19700
H1626       H  0.71066870  0.06097735  0.37727608     0.09400
H1627       H  0.71258153  0.05876447  0.32622770     0.09400
H1628       H  0.72371961  0.14566312  0.32138588     0.09100
H1629       H  0.72220823  0.14796627  0.37229092     0.10200
H1630       H  0.70839541  0.07625071  0.28033711     0.10300
H1631       H  0.73513764  0.14291848  0.27779795     0.12200
H1632       H  0.72381041  0.15784590  0.23337827     0.08700
H1633       H  0.71811273  0.15327098  0.18254913     0.10800
H1634       H  0.71592378  0.07024212  0.18543424     0.07400
H1635       H  0.72206999  0.07506593  0.23618558     0.10200
C1636       C  0.85799849  0.24603152  0.37955278    -0.04400
C1637       C  0.88038223  0.24372268  0.36549693    -0.07000
C1638       C  0.88077741  0.24185077  0.33616451    -0.22100
C1639       C  0.85880005  0.24207606  0.31992766     0.23600
C1640       C  0.83593357  0.24373344  0.33395543    -0.19700
C1641       C  0.83553921  0.24561373  0.36341312    -0.09600
C1642       C  0.86189266  0.24236014  0.28861837    -0.19900
C1643       C  0.84032347  0.23687968  0.27031040    -0.24700
C1644       C  0.84433526  0.23904691  0.23904732     0.25700
C1645       C  0.82331744  0.24105536  0.22282993    -0.21500
C1646       C  0.82644550  0.24423057  0.19361915    -0.11100
C1647       C  0.85070602  0.24538562  0.17967286    -0.11700
C1648       C  0.87134686  0.24245423  0.19572865    -0.04600
C1649       C  0.86817957  0.23921174  0.22503325    -0.19700
H1650       H  0.89801279  0.24387035  0.37711450     0.09400
H1651       H  0.89866744  0.24061252  0.32606323     0.09400
H1652       H  0.81879974  0.24455610  0.32244296     0.09100
H1653       H  0.81798372  0.24745151  0.37347250     0.10200
H1654       H  0.88336118  0.24786925  0.28055603     0.10300
H1655       H  0.81884488  0.23141256  0.27833756     0.12200
H1656       H  0.80457265  0.24069226  0.23286557     0.08700
H1657       H  0.80995874  0.24622955  0.18203501     0.10800
H1658       H  0.89011475  0.24288727  0.18570102     0.07400
H1659       H  0.88443637  0.23671198  0.23638619     0.10200
C1660       C  0.85587461  0.11339608  0.38160653    -0.04400
C1661       C  0.87080073  0.14139816  0.36933623    -0.07000
C1662       C  0.87178540  0.14469591  0.34008526    -0.22100
C1663       C  0.85798920  0.12014045  0.32229177     0.23600
C1664       C  0.84276579  0.09207513  0.33461131    -0.19700
C1665       C  0.84152522  0.08880838  0.36392207    -0.09600
C1666       C  0.86144207  0.12467320  0.29117171    -0.19900
C1667       C  0.84347230  0.10467706  0.27224685    -0.24700
C1668       C  0.84719675  0.10814125  0.24105082     0.25700
C1669       C  0.82351955  0.08914132  0.22406914    -0.21500
C1670       C  0.82622116  0.08994721  0.19476419    -0.11100
C1671       C  0.85279260  0.10980271  0.18148090    -0.10200
C1672       C  0.87644860  0.12926015  0.19838086    -0.04600
C1673       C  0.87376591  0.12838588  0.22782862    -0.19700
H1674       H  0.88204996  0.16081620  0.38236695     0.09400
H1675       H  0.88373731  0.16655548  0.33130222     0.09400
H1676       H  0.83254680  0.07246510  0.32181446     0.09100
H1677       H  0.83023412  0.06693470  0.37270162     0.10200
H1678       H  0.87906882  0.14562458  0.28383718     0.10300
H1679       H  0.82446877  0.08480997  0.27979501     0.12200
H1680       H  0.80282336  0.07326722  0.23354368     0.08700
H1681       H  0.80746740  0.07466249  0.18253018     0.10800
H1682       H  0.89731262  0.14466999  0.18890178     0.07400
H1683       H  0.89282138  0.14300578  0.23999182     0.10200
C1684       C  0.59354702  0.22895776  0.18028964    -0.04400
C1685       C  0.56981913  0.22894459  0.19419637    -0.07000
C1686       C  0.56909957  0.23077724  0.22344908    -0.22100
C1687       C  0.59211193  0.23292125  0.23971430     0.23600
C1688       C  0.61609733  0.23320731  0.22590375    -0.19700
C1689       C  0.61677699  0.23126393  0.19649047    -0.09600
C1690       C  0.58911632  0.23310108  0.27089159    -0.19900
C1691       C  0.61151550  0.24181046  0.28891862    -0.24700
C1692       C  0.60754085  0.23977291  0.32002465     0.25700
C1693       C  0.62824759  0.23730504  0.33620492    -0.21500
C1694       C  0.62498737  0.23418269  0.36535521    -0.11100
C1695       C  0.60098152  0.23368899  0.37922703    -0.11700
C1696       C  0.58062991  0.23703998  0.36314157    -0.04600
C1697       C  0.58390393  0.24014949  0.33384763    -0.19700
H1698       H  0.55144029  0.22710908  0.18252972     0.09400
H1699       H  0.55029508  0.23032858  0.23344807     0.09400
H1700       H  0.63398992  0.23406858  0.23758036     0.09100
H1701       H  0.63529914  0.23116543  0.18649901     0.10200
H1702       H  0.56717627  0.22523628  0.27920273     0.10300
H1703       H  0.63349141  0.24946742  0.28085141     0.12200
H1704       H  0.64677130  0.23720595  0.32618576     0.08700
H1705       H  0.64123275  0.23179587  0.37695771     0.10800
H1706       H  0.56209070  0.23709672  0.37313599     0.07400
H1707       H  0.56799964  0.24303720  0.32223912     0.10200
C1708       C  0.60119058  0.36762014  0.17987101    -0.04400
C1709       C  0.62810961  0.38731445  0.19245985    -0.07000
C1710       C  0.63146327  0.38788126  0.22164787    -0.22100
C1711       C  0.60802965  0.36896715  0.23916249     0.23600
C1712       C  0.58143101  0.34832990  0.22644575    -0.19700
C1713       C  0.57808760  0.34775334  0.19719470    -0.09600
C1714       C  0.61241051  0.37171788  0.27034742    -0.19900
C1715       C  0.59027996  0.35968143  0.28930232    -0.24700
C1716       C  0.59393458  0.36250683  0.32044005     0.25700
C1717       C  0.57089501  0.34179005  0.33716620    -0.21500
C1718       C  0.57185358  0.34410858  0.36642124    -0.11100
C1719       C  0.59580870  0.36752854  0.37998888    -0.11700
C1720       C  0.61926267  0.38818259  0.36334245    -0.04600
C1721       C  0.61838711  0.38570573  0.33383890    -0.19700
H1722       H  0.64656867  0.40273710  0.17980728     0.09400
H1723       H  0.65234245  0.40368473  0.23063045     0.09400
H1724       H  0.56301594  0.33247193  0.23873789     0.09100
H1725       H  0.55716247  0.33209314  0.18822492     0.10200
H1726       H  0.63474338  0.38464503  0.27780563     0.10300
H1727       H  0.56794595  0.34672696  0.28200295     0.12200
H1728       H  0.55177749  0.32374225  0.32750739     0.08700
H1729       H  0.55333571  0.32772752  0.37835638     0.10800
H1730       H  0.63803226  0.40653946  0.37305526     0.07400
H1731       H  0.63637682  0.40246779  0.32172040     0.10200
C1732       C  0.73070412  0.36484900  0.18040695    -0.04400
C1733       C  0.72876585  0.34025871  0.19389692    -0.07000
C1734       C  0.72509742  0.33696299  0.22305431    -0.22100
C1735       C  0.72333072  0.35809736  0.23981115     0.23600
C1736       C  0.72453403  0.38245949  0.22633110    -0.19700
C1737       C  0.72822145  0.38576665  0.19699671    -0.09600
C1738       C  0.72074886  0.35361987  0.27101789    -0.19900
C1739       C  0.72324808  0.37374363  0.29022918    -0.24700
C1740       C  0.72279993  0.36939428  0.32130872     0.25700
C1741       C  0.71601753  0.38658601  0.33912785    -0.21500
C1742       C  0.71774209  0.38516597  0.36837022    -0.11100
C1743       C  0.72651692  0.36659664  0.38066921    -0.11700
C1744       C  0.73248330  0.34869544  0.36292582    -0.04600
C1745       C  0.73081536  0.35016644  0.33359628    -0.19700
H1746       H  0.73043525  0.32354982  0.18197989     0.09400
H1747       H  0.72408708  0.31788160  0.23262268     0.09400
H1748       H  0.72271407  0.39910218  0.23809324     0.09100
H1749       H  0.72938935  0.40487499  0.18735897     0.10200
H1750       H  0.71723270  0.33267403  0.27843780     0.10300
H1751       H  0.72585012  0.39445431  0.28330393     0.12200
H1752       H  0.70981404  0.40160154  0.33035545     0.08700
H1753       H  0.71282423  0.39918513  0.38132672     0.10800
H1754       H  0.73957102  0.33435744  0.37163219     0.07400
H1755       H  0.73697288  0.33705931  0.32073918     0.10200
C1756       C  0.73846551  0.36942478  0.64993901     0.79000
N1757       N  0.74062823  0.34885995  0.63444382    -0.79300
C1758       C  0.74597810  0.35217389  0.60638203     0.81400
N1759       N  0.74902690  0.37637624  0.59332611    -0.79300
C1760       C  0.74605900  0.39684717  0.60837459     0.81500
N1761       N  0.74078297  0.39332404  0.63666191    -0.81000
C1762       C  0.73381278  0.36814115  0.91142537     0.79000
N1763       N  0.73691185  0.34722994  0.92492037    -0.79300
C1764       C  0.74366726  0.35011263  0.95277234     0.81400
N1765       N  0.74731383  0.37405938  0.96731369    -0.79300
C1766       C  0.74354405  0.39464228  0.95401291     0.81500
N1767       N  0.73678473  0.39148709  0.92631974    -0.81000
C1768       C  0.59368386  0.36799333  0.91120031     0.79000
N1769       N  0.57067633  0.34761706  0.92634156    -0.79300
C1770       C  0.56829401  0.35104616  0.95430043     0.81400
N1771       N  0.58930430  0.37524120  0.96765274    -0.79300
C1772       C  0.61298463  0.39558092  0.95289761     0.81500
N1773       N  0.61515444  0.39186148  0.92471247    -0.81000
C1774       C  0.59539221  0.37126441  0.65034014     0.79000
N1775       N  0.61611344  0.39427241  0.63543796    -0.79300
C1776       C  0.61320966  0.39660758  0.60745754     0.81400
N1777       N  0.58925708  0.37557943  0.59391986    -0.79300
C1778       C  0.56870145  0.35194855  0.60846918     0.81500
N1779       N  0.57183785  0.34981822  0.63660096    -0.81000
C1780       C  0.59405295  0.22708678  0.64895503     0.79000
N1781       N  0.61520103  0.22442857  0.63482489    -0.79300
C1782       C  0.61270856  0.21849417  0.60670234     0.81400
N1783       N  0.58902190  0.21535536  0.59255449    -0.79300
C1784       C  0.56827300  0.21877408  0.60646259     0.81500
N1785       N  0.57095551  0.22465068  0.63441795    -0.81000
C1786       C  0.59619948  0.22656800  0.91060105     0.79000
N1787       N  0.57228897  0.22397328  0.92450308    -0.79300
C1788       C  0.56873708  0.21832819  0.95266091     0.81400
N1789       N  0.58924923  0.21523933  0.96701896    -0.79300
C1790       C  0.61349998  0.21852192  0.95331380     0.81500
N1791       N  0.61679811  0.22424683  0.92536031    -0.81000
C1792       C  0.85881029  0.10999736  0.91221600     0.79000
N1793       N  0.88134635  0.13087534  0.92730019    -0.79300
C1794       C  0.88344986  0.12776994  0.95527722     0.81400
N1795       N  0.86262196  0.10341201  0.96867004    -0.79300
C1796       C  0.83941147  0.08262379  0.95393735     0.81500
N1797       N  0.83755291  0.08600549  0.92578421    -0.81000
C1798       C  0.85402844  0.10931553  0.65036538     0.79000
N1799       N  0.87839281  0.12981939  0.63662848    -0.79300
C1800       C  0.88217091  0.12699214  0.60861872     0.81400
N1801       N  0.86142347  0.10344233  0.59418389    -0.79300
C1802       C  0.83669720  0.08327368  0.60772462     0.81500
N1803       N  0.83316504  0.08639958  0.63557698    -0.81000
C1804       C  0.85248846  0.24757352  0.64922293     0.79000
N1805       N  0.87644093  0.25016385  0.63555011    -0.79300
C1806       C  0.88088922  0.25692093  0.60773740     0.81400
N1807       N  0.86115443  0.26114808  0.59328627    -0.79300
C1808       C  0.83675732  0.25794773  0.60663965     0.81500
N1809       N  0.83253936  0.25107930  0.63445877    -0.81000
C1810       C  0.85816181  0.24845425  0.91028226     0.79000
N1811       N  0.88159533  0.25196282  0.92506045    -0.79300
C1812       C  0.88436029  0.25896490  0.95284749     0.81400
N1813       N  0.86326339  0.26228550  0.96624127    -0.79300
C1814       C  0.83926955  0.25805902  0.95182379     0.81500
N1815       N  0.83683851  0.25117579  0.92394851    -0.81000
C1816       C  0.71975916  0.10898785  0.91051683     0.79000
N1817       N  0.71600405  0.12951379  0.92444291    -0.79300
C1818       C  0.70855458  0.12631778  0.95221479     0.81400
N1819       N  0.70467894  0.10224709  0.96628515    -0.79300
C1820       C  0.70898513  0.08189429  0.95265449     0.81500
N1821       N  0.71664569  0.08546099  0.92494608    -0.81000
C1822       C  0.71511310  0.11126865  0.64886834     0.79000
N1823       N  0.71236609  0.08724663  0.63526452    -0.79300
C1824       C  0.70638020  0.08333121  0.60725673     0.81400
N1825       N  0.70328867  0.10366469  0.59261281    -0.79300
C1826       C  0.70682880  0.12811758  0.60592971     0.81500
N1827       N  0.71271482  0.13175487  0.63386647    -0.81000
N1828       N  0.73893938  0.28475296  0.97598049    -0.07300
N1829       N  0.73177183  0.29862374  0.95759184    -0.59500
N1830       N  0.79072594  0.26937773  0.99507356    -0.07000
N1831       N  0.81770227  0.27455337  0.99021737    -0.61600
N1832       N  0.77286303  0.25180139  0.97560971    -0.06600
N1833       N  0.78725866  0.24502748  0.95695746    -0.59400
N1834       N  0.75624404  0.30295747  0.99538609    -0.06300
N1835       N  0.76084172  0.32968091  0.99076509    -0.61900
C1836       C  0.74545129  0.32651776  0.96706829     0.94800
C1837       C  0.81511099  0.25923985  0.96633343     0.94600
N1838       N  0.77196633  0.25284349  0.58138732    -0.07500
N1839       N  0.78555271  0.24592537  0.60026410    -0.60000
N1840       N  0.75630940  0.30418800  0.56154764    -0.05700
N1841       N  0.76170953  0.33119817  0.56666769    -0.61300
N1842       N  0.73862407  0.28615955  0.58096075    -0.07600
N1843       N  0.73197795  0.30038196  0.59981421    -0.60300
N1844       N  0.79042510  0.27010100  0.56200257    -0.05300
N1845       N  0.81717061  0.27491720  0.56721960    -0.61400
Mn1846     Mn  0.77452286  0.28784092  0.52832482     1.18400
C1847       C  0.81361688  0.25963839  0.59122639     0.96900
C1848       C  0.74628040  0.32830566  0.59062033     0.97600
N1849       N  0.71326402  0.19186995  0.97605319    -0.07600
N1850       N  0.72038336  0.17779443  0.95741702    -0.63900
N1851       N  0.66146473  0.20761802  0.99632561    -0.06400
N1852       N  0.63453860  0.20260409  0.99198374    -0.64600
N1853       N  0.67943152  0.22492132  0.97666126    -0.07100
N1854       N  0.66519754  0.23169574  0.95838891    -0.64200
N1855       N  0.69591467  0.17387362  0.99566217    -0.06000
N1856       N  0.69125562  0.14705866  0.99089655    -0.64800
Mn1857     Mn  0.72611613  0.23831181  0.97541454     1.10700
C1858       C  0.70665802  0.14996946  0.96689874     0.98100
C1859       C  0.63736238  0.21784194  0.96821063     0.98200
N1860       N  0.67908674  0.22626524  0.58136785    -0.07100
N1861       N  0.66470045  0.23245133  0.60050531    -0.62500
N1862       N  0.69558579  0.17505017  0.56167099    -0.06400
N1863       N  0.69074687  0.14828133  0.56663558    -0.59200
N1864       N  0.71274163  0.19333406  0.58110440    -0.07700
N1865       N  0.71961043  0.17954076  0.59980013    -0.62000
N1866       N  0.66116461  0.20860817  0.56201045    -0.06700
N1867       N  0.63407021  0.20281622  0.56740713    -0.59200
Mn1868     Mn  0.72557429  0.23969544  0.58172132     1.20200
Mn1869     Mn  0.67755497  0.19072932  0.52849471     1.10100
Cl1870     Cl  0.72600712  0.23928773  0.52831917    -0.87200
C1871       C  0.63675874  0.21783833  0.59154048     0.95100
C1872       C  0.70594097  0.15160112  0.59052340     0.94900
N1873       N  0.50953455  0.28589224  0.58417500    -0.07300
N1874       N  0.53010852  0.30005482  0.60302195    -0.59500
N1875       N  0.94148233  0.26911222  0.56536358    -0.07000
N1876       N  0.91924789  0.27370335  0.56978492    -0.61600
N1877       N  0.94197660  0.25182679  0.58492226    -0.06600
N1878       N  0.92046115  0.24466033  0.60322221    -0.59400
N1879       N  0.51029222  0.30397810  0.56483370    -0.06300
N1880       N  0.53186137  0.33089891  0.56991724    -0.61900
C1881       C  0.54389648  0.32798978  0.59382587     0.94800
C1882       C  0.90643106  0.25832658  0.59349788     0.94600
N1883       N  0.94380608  0.25340825  0.97784360    -0.07500
N1884       N  0.92312630  0.24641273  0.95910600    -0.60000
N1885       N  0.50946244  0.30323170  0.99810617    -0.05700
N1886       N  0.53123113  0.33018565  0.99338773    -0.61300
N1887       N  0.50914941  0.28520746  0.97859558    -0.07600
N1888       N  0.53022859  0.29940799  0.96003611    -0.60300
N1889       N  0.94303104  0.27107323  0.99711713    -0.05300
N1890       N  0.92124115  0.27610014  0.99199550    -0.61400
Mn1891     Mn  0.97583523  0.28738095  0.53215567     1.18400
C1892       C  0.90913287  0.26050474  0.96815850     0.96900
C1893       C  0.54388922  0.32727196  0.96956598     0.97600
N1894       N  0.94272520  0.19247069  0.58480563    -0.07600
N1895       N  0.92169704  0.17842002  0.60351176    -0.63900
N1896       N  0.51018282  0.20886896  0.56309401    -0.06400
N1897       N  0.53177897  0.20347259  0.56758503    -0.64600
N1898       N  0.50950834  0.22611759  0.58291820    -0.07100
N1899       N  0.53020965  0.23247764  0.60146867    -0.64200
N1900       N  0.94213439  0.17441076  0.56519050    -0.06000
N1901       N  0.92013924  0.14755795  0.57001634    -0.64800
Mn1902     Mn  0.97579529  0.23900314  0.58541493     1.10700
C1903       C  0.90773370  0.15054136  0.59406059     0.98100
C1904       C  0.54396568  0.21840148  0.59161607     0.98200
N1905       N  0.50939795  0.22549937  0.97761078    -0.07100
N1906       N  0.53004682  0.23173850  0.95851825    -0.62500
N1907       N  0.94248922  0.17574987  0.99827575    -0.06400
N1908       N  0.92033741  0.14890189  0.99398687    -0.59200
N1909       N  0.94314207  0.19361328  0.97873490    -0.07700
N1910       N  0.92188334  0.17940060  0.96060273    -0.62000
N1911       N  0.50989704  0.20810979  0.99701959    -0.06700
N1912       N  0.53141712  0.20259514  0.99172669    -0.59200
Mn1913     Mn  0.97685452  0.24000239  0.97737447     1.20200
Mn1914     Mn  0.97626810  0.19055372  0.53146111     1.10100
Cl1915     Cl  0.97606567  0.23898306  0.53188574    -0.87200
C1916       C  0.54369048  0.21746397  0.96759188     0.95100
C1917       C  0.90777023  0.15169412  0.97040247     0.94900
N1918       N  0.73879022  0.45598061  0.58421089    -0.07300
N1919       N  0.73260322  0.43558447  0.60328957    -0.59500
N1920       N  0.78948442  0.02358150  0.56472658    -0.07000
N1921       N  0.81622985  0.04578358  0.56917694    -0.61600
N1922       N  0.77125897  0.02298947  0.58421223    -0.06600
N1923       N  0.78513075  0.04437845  0.60248194    -0.59400
N1924       N  0.75611203  0.45517488  0.56449221    -0.06300
N1925       N  0.76166463  0.43376721  0.56958134    -0.61900
C1926       C  0.74690141  0.42184492  0.59389293     0.94800
C1927       C  0.81302156  0.05847145  0.59280823     0.94600
N1928       N  0.77355525  0.02212880  0.97749186    -0.07500
N1929       N  0.78776895  0.04299302  0.95879258    -0.60000
N1930       N  0.75607701  0.45467167  0.99706749    -0.05700
N1931       N  0.76053355  0.43234471  0.99260051    -0.61300
N1932       N  0.73875830  0.45524393  0.97765415    -0.07600
N1933       N  0.73140372  0.43378766  0.95946883    -0.60300
N1934       N  0.79142942  0.02317525  0.99716339    -0.05300
N1935       N  0.81824749  0.04524619  0.99241526    -0.61400
Mn1936     Mn  0.77417431  0.48887770  0.53083826     1.18400
C1937       C  0.81551872  0.05727196  0.96836030     0.96900
C1938       C  0.74493664  0.41963843  0.96903509     0.97600
N1939       N  0.71152792  0.02259205  0.58414160    -0.07600
N1940       N  0.71843779  0.04382161  0.60257253    -0.63900
N1941       N  0.66127528  0.45562857  0.56406725    -0.06400
N1942       N  0.63435216  0.43365352  0.56865644    -0.64600
N1943       N  0.67911345  0.45617408  0.58354223    -0.07100
N1944       N  0.66482279  0.43505309  0.60189899    -0.64200
N1945       N  0.69436768  0.02315972  0.56456130    -0.06000
N1946       N  0.68964940  0.04529650  0.56910213    -0.64800
Mn1947     Mn  0.72560949  0.48948644  0.58456952     1.10700
C1948       C  0.70478709  0.05783699  0.59294484     0.98100
C1949       C  0.63708804  0.42112810  0.59234313     0.98200
N1950       N  0.67911341  0.45520296  0.97696834    -0.07100
N1951       N  0.66499081  0.43443356  0.95809880    -0.62500
N1952       N  0.69631581  0.02274356  0.99657527    -0.06400
N1953       N  0.69153518  0.04469621  0.99155184    -0.59200
N1954       N  0.71388554  0.02185905  0.97718420    -0.07700
N1955       N  0.72109361  0.04268908  0.95846703    -0.62000
N1956       N  0.66097833  0.45467226  0.99652568    -0.06700
N1957       N  0.63405273  0.43301868  0.99155002    -0.59200
Mn1958     Mn  0.72569942  0.48859722  0.97665668     1.20200
Mn1959     Mn  0.67766595  0.48991526  0.53112649     1.10100
Cl1960     Cl  0.72597847  0.48951766  0.53105722    -0.87200
C1961       C  0.63698383  0.42071139  0.96746087     0.95100
C1962       C  0.70718272  0.05682676  0.96766626     0.94900
C1963       C  0.72584795  0.11150461  0.87969222    -0.04400
C1964       C  0.73578436  0.09419987  0.86616128    -0.07000
C1965       C  0.73903681  0.09480638  0.83681937    -0.22100
C1966       C  0.73214371  0.11243161  0.82017177     0.23600
C1967       C  0.72345763  0.13074282  0.83391564    -0.19700
C1968       C  0.72035855  0.13023473  0.86322860    -0.09600
C1969       C  0.73403700  0.11072967  0.78878458    -0.19900
C1970       C  0.72241021  0.12172116  0.77069948    -0.24700
C1971       C  0.72316789  0.11948829  0.73941918     0.25700
C1972       C  0.71889369  0.13926764  0.72340077    -0.21500
C1973       C  0.71722130  0.13707460  0.69410726    -0.11100
C1974       C  0.71936352  0.11469907  0.67989036    -0.11700
C1975       C  0.72414232  0.09508063  0.69582343    -0.04600
C1976       C  0.72607364  0.09744840  0.72527719    -0.19700
H1977       H  0.74061194  0.07979443  0.87820767     0.09400
H1978       H  0.74625283  0.08083039  0.82703456     0.09400
H1979       H  0.71894699  0.14559728  0.82240199     0.09100
H1980       H  0.71293671  0.14407019  0.87293030     0.10200
H1981       H  0.74494881  0.09941992  0.78041832     0.10300
H1982       H  0.71161219  0.13317238  0.77883249     0.12200
H1983       H  0.71649511  0.15640175  0.73365460     0.08700
H1984       H  0.71349567  0.15258654  0.68267818     0.10800
H1985       H  0.72585707  0.07755425  0.68559804     0.07400
H1986       H  0.72880516  0.08139249  0.73682053     0.10200
C1987       C  0.85645529  0.24250154  0.87948260    -0.04400
C1988       C  0.87669310  0.23622990  0.86618369    -0.07000
C1989       C  0.87663886  0.23285452  0.83696488    -0.22100
C1990       C  0.85638165  0.23559992  0.82017753     0.23600
C1991       C  0.83564345  0.24121136  0.83352837    -0.19700
C1992       C  0.83561701  0.24445471  0.86281980    -0.09600
C1993       C  0.85931774  0.23478535  0.78893791    -0.19900
C1994       C  0.83845876  0.23141042  0.77056790    -0.24700
C1995       C  0.84234496  0.23376909  0.73926906     0.25700
C1996       C  0.81952123  0.23230000  0.72300334    -0.21500
C1997       C  0.82256073  0.23627360  0.69382715    -0.11100
C1998       C  0.84852445  0.24167372  0.68000930    -0.11700
C1999       C  0.87107752  0.24231728  0.69609368    -0.04600
C2000       C  0.86810377  0.23846062  0.72529686    -0.19700
H2001       H  0.89298629  0.23440383  0.87829507     0.09400
H2002       H  0.89290998  0.22861185  0.82737695     0.09400
H2003       H  0.82005457  0.24424017  0.82156075     0.09100
H2004       H  0.81982102  0.24943025  0.87230243     0.10200
H2005       H  0.87995983  0.23763516  0.78116671     0.10300
H2006       H  0.81746585  0.22739545  0.77868700     0.12200
H2007       H  0.79936440  0.22859833  0.73297491     0.08700
H2008       H  0.80462054  0.23542698  0.68215549     0.10800
H2009       H  0.89136202  0.24633485  0.68619541     0.07400
H2010       H  0.88630429  0.23953090  0.73651022     0.10200
C2011       C  0.85821921  0.11345189  0.88126149    -0.04400
C2012       C  0.88127061  0.13796044  0.86778684    -0.07000
C2013       C  0.88163162  0.14107169  0.83863568    -0.22100
C2014       C  0.85904173  0.11985621  0.82198231     0.23600
C2015       C  0.83565486  0.09543770  0.83548166    -0.19700
C2016       C  0.83533842  0.09229325  0.86475881    -0.09600
C2017       C  0.86114216  0.12449913  0.79087770    -0.19900
C2018       C  0.84312687  0.10452597  0.77199828    -0.24700
C2019       C  0.84599061  0.10863975  0.74086612     0.25700
C2020       C  0.82273003  0.08841538  0.72417899    -0.21500
C2021       C  0.82495852  0.08943235  0.69488226    -0.11100
C2022       C  0.85066568  0.11069382  0.68134253    -0.10200
C2023       C  0.87361432  0.13172396  0.69791276    -0.04600
C2024       C  0.87140153  0.13068616  0.72734840    -0.19700
H2025       H  0.89931607  0.15479026  0.87971365     0.09400
H2026       H  0.89986214  0.16016223  0.82902870     0.09400
H2027       H  0.81738977  0.07867643  0.82387459     0.09100
H2028       H  0.81718214  0.07321785  0.87443312     0.10200
H2029       H  0.87866624  0.14542490  0.78344730     0.10300
H2030       H  0.82530558  0.08375271  0.77930573     0.12200
H2031       H  0.80285611  0.07127712  0.73387158     0.08700
H2032       H  0.80670309  0.07296994  0.68288684     0.10800
H2033       H  0.89373908  0.14838748  0.68819941     0.07400
H2034       H  0.89011737  0.14654799  0.73914989     0.10200
C2035       C  0.59556809  0.23224040  0.67989236    -0.04400
C2036       C  0.57288543  0.23412583  0.69388950    -0.07000
C2037       C  0.57311424  0.23744962  0.72307153    -0.22100
C2038       C  0.59587907  0.23885497  0.73925913     0.23600
C2039       C  0.61917460  0.23793612  0.72523709    -0.19700
C2040       C  0.61893964  0.23458513  0.69589726    -0.09600
C2041       C  0.59389657  0.24093637  0.77050539    -0.19900
C2042       C  0.60991594  0.23562330  0.78896807    -0.24700
C2043       C  0.60620446  0.23555880  0.82015442     0.25700
C2044       C  0.62917649  0.23858685  0.83710253    -0.21500
C2045       C  0.62613322  0.23651701  0.86636019    -0.11100
C2046       C  0.59985930  0.23112100  0.87959911    -0.11700
C2047       C  0.57696774  0.22864705  0.86272870    -0.04600
C2048       C  0.58002960  0.23072961  0.83333240    -0.19700
H2049       H  0.55457504  0.23262928  0.68236544     0.09400
H2050       H  0.55502331  0.23836579  0.73311351     0.09400
H2051       H  0.63767884  0.23982551  0.73660788     0.09100
H2052       H  0.63693882  0.23356314  0.68581187     0.10200
H2053       H  0.57770085  0.24618766  0.77851304     0.10300
H2054       H  0.62645394  0.23076788  0.78123762     0.12200
H2055       H  0.64952727  0.24222927  0.82762901     0.08700
H2056       H  0.64434057  0.23867671  0.87857101     0.10800
H2057       H  0.55636917  0.22427348  0.87215745     0.07400
H2058       H  0.56145455  0.22749715  0.82111820     0.10200
C2059       C  0.59830282  0.37053921  0.68132787    -0.04400
C2060       C  0.62125663  0.39469036  0.69514698    -0.07000
C2061       C  0.62332169  0.39536548  0.72437506    -0.22100
C2062       C  0.60276456  0.37187508  0.74070144     0.23600
C2063       C  0.57999129  0.34733118  0.72697279    -0.19700
C2064       C  0.57782585  0.34670844  0.69756560    -0.09600
C2065       C  0.60529857  0.37496602  0.77184260    -0.19900
C2066       C  0.59209212  0.35255839  0.79008232    -0.24700
C2067       C  0.59396156  0.35679214  0.82113412     0.25700
C2068       C  0.57106999  0.33596371  0.83788137    -0.21500
C2069       C  0.57126121  0.33952339  0.86702099    -0.11100
C2070       C  0.59456777  0.36396140  0.88028214    -0.11700
C2071       C  0.61798689  0.38441740  0.86361070    -0.04600
C2072       C  0.61776782  0.38084499  0.83435506    -0.19700
H2073       H  0.63744920  0.41350268  0.68345045     0.09400
H2074       H  0.64101472  0.41456514  0.73431973     0.09400
H2075       H  0.56328061  0.32898225  0.73871051     0.09100
H2076       H  0.55981955  0.32780558  0.68761837     0.10200
H2077       H  0.61861271  0.39704975  0.77997388     0.10300
H2078       H  0.57838795  0.33041769  0.78228473     0.12200
H2079       H  0.55262956  0.31710594  0.82832265     0.08700
H2080       H  0.55286346  0.32316183  0.87909518     0.10800
H2081       H  0.63643051  0.40327700  0.87312549     0.07400
H2082       H  0.63638583  0.39683927  0.82230167     0.10200
C2083       C  0.73415182  0.36555706  0.68099344    -0.04400
C2084       C  0.72892901  0.33920554  0.69348389    -0.07000
C2085       C  0.72661920  0.33575805  0.72267810    -0.22100
C2086       C  0.72918715  0.35836658  0.74031371     0.23600
C2087       C  0.73412397  0.38471158  0.72793785    -0.19700
C2088       C  0.73647696  0.38819443  0.69860083    -0.09600
C2089       C  0.72836801  0.35411039  0.77136894    -0.19900
C2090       C  0.72157556  0.36913382  0.79017540    -0.24700
C2091       C  0.72274170  0.36666838  0.82136120     0.25700
C2092       C  0.72289124  0.38877317  0.83813065    -0.21500
C2093       C  0.72571503  0.38874910  0.86729326    -0.11100
C2094       C  0.72834231  0.36645470  0.88064744    -0.11700
C2095       C  0.72694235  0.34356203  0.86407647    -0.04600
C2096       C  0.72410673  0.34359048  0.83476727    -0.19700
H2097       H  0.72695771  0.32120299  0.68072241     0.09400
H2098       H  0.72298339  0.31531385  0.73155184     0.09400
H2099       H  0.73710175  0.40303235  0.74075177     0.09100
H2100       H  0.74079109  0.40887143  0.68977115     0.10200
H2101       H  0.73375624  0.33796088  0.77867989     0.10300
H2102       H  0.71578781  0.38490444  0.78250537     0.12200
H2103       H  0.72152009  0.40663473  0.82855303     0.08700
H2104       H  0.72640544  0.40663670  0.87928751     0.10800
H2105       H  0.72852725  0.32584617  0.87367301     0.07400
H2106       H  0.72308565  0.32552787  0.82291618     0.10200
C2107       C  0.73861510  0.86972437  0.14972189     0.79000
N2108       N  0.74040052  0.84880220  0.13449062    -0.79300
C2109       C  0.74568957  0.85176537  0.10640839     0.81400
N2110       N  0.74905723  0.87599161  0.09306299    -0.79300
C2111       C  0.74643824  0.89680199  0.10790683     0.81500
N2112       N  0.74125394  0.89360253  0.13619163    -0.81000
C2113       C  0.73729754  0.87075253  0.41219444     0.79000
N2114       N  0.73983001  0.84950157  0.42573974    -0.79300
C2115       C  0.74522015  0.85163513  0.45388647     0.81400
N2116       N  0.74810625  0.87516952  0.46861195    -0.79300
C2117       C  0.74486599  0.89603211  0.45523543     0.81500
N2118       N  0.73940426  0.89362572  0.42728151    -0.81000
C2119       C  0.59511023  0.86882911  0.41143224     0.79000
N2120       N  0.57204151  0.84828571  0.42644784    -0.79300
C2121       C  0.56939893  0.85161511  0.45440921     0.81400
N2122       N  0.59018015  0.87584831  0.46786296    -0.79300
C2123       C  0.61390145  0.89631231  0.45327910     0.81500
N2124       N  0.61636630  0.89272135  0.42510744    -0.81000
C2125       C  0.59814069  0.86974077  0.14983390     0.79000
N2126       N  0.61860359  0.89275341  0.13475531    -0.79300
C2127       C  0.61469874  0.89569504  0.10709099     0.81400
N2128       N  0.59000086  0.87522360  0.09403344    -0.79300
C2129       C  0.56962781  0.85161631  0.10875947     0.81500
N2130       N  0.57376287  0.84896230  0.13656747    -0.81000
C2131       C  0.59602379  0.72996094  0.14995692     0.79000
N2132       N  0.61700371  0.72696329  0.13587409    -0.79300
C2133       C  0.61426353  0.72059824  0.10782383     0.81400
N2134       N  0.59048308  0.71732836  0.09375243    -0.79300
C2135       C  0.56990513  0.72103362  0.10765737     0.81500
N2136       N  0.57284495  0.72734826  0.13549231    -0.81000
C2137       C  0.59652792  0.72874409  0.41105163     0.79000
N2138       N  0.57247908  0.72591702  0.42480460    -0.79300
C2139       C  0.56871788  0.71999337  0.45288602     0.81400
N2140       N  0.58916828  0.71692921  0.46735617    -0.79300
C2141       C  0.61357589  0.72046489  0.45380660     0.81500
N2142       N  0.61706920  0.72639860  0.42589788    -0.81000
C2143       C  0.85865541  0.60911129  0.41195925     0.79000
N2144       N  0.88153216  0.62991039  0.42682047    -0.79300
C2145       C  0.88404070  0.62667058  0.45474793     0.81400
N2146       N  0.86323109  0.60235889  0.46826504    -0.79300
C2147       C  0.83972066  0.58168951  0.45376653     0.81500
N2148       N  0.83753557  0.58516110  0.42569559    -0.81000
C2149       C  0.85356848  0.60806589  0.14990550     0.79000
N2150       N  0.87768766  0.62910334  0.13629589    -0.79300
C2151       C  0.88153817  0.62674459  0.10822059     0.81400
N2152       N  0.86113880  0.60316318  0.09356991    -0.79300
C2153       C  0.83663912  0.58246754  0.10696484     0.81500
N2154       N  0.83301001  0.58510337  0.13490754    -0.81000
C2155       C  0.85253069  0.74650362  0.15049279     0.79000
N2156       N  0.87693731  0.74984814  0.13706719    -0.79300
C2157       C  0.88153409  0.75681743  0.10925492     0.81400
N2158       N  0.86155518  0.76046082  0.09463364    -0.79300
C2159       C  0.83678339  0.75647879  0.10773880     0.81500
N2160       N  0.83239641  0.74945185  0.13548755    -0.81000
C2161       C  0.85657634  0.74729743  0.41239576     0.79000
N2162       N  0.87971685  0.75010084  0.42719715    -0.79300
C2163       C  0.88231520  0.75656656  0.45510005     0.81400
N2164       N  0.86140404  0.76008864  0.46858455    -0.79300
C2165       C  0.83771256  0.75653393  0.45412130     0.81500
N2166       N  0.83540484  0.75017447  0.42614231    -0.81000
C2167       C  0.71681321  0.60813875  0.41092177     0.79000
N2168       N  0.71369512  0.62924964  0.42454084    -0.79300
C2169       C  0.70732159  0.62694723  0.45260587     0.81400
N2170       N  0.70414733  0.60344683  0.46722122    -0.79300
C2171       C  0.70801770  0.58272494  0.45389694     0.81500
N2172       N  0.71435648  0.58523317  0.42596038    -0.81000
C2173       C  0.71765236  0.61125664  0.14898253     0.79000
N2174       N  0.71405014  0.58684703  0.13539987    -0.79300
C2175       C  0.70694849  0.58252035  0.10758687     0.81400
N2176       N  0.70354791  0.60281038  0.09317460    -0.79300
C2177       C  0.70783134  0.62756741  0.10645124     0.81500
N2178       N  0.71489764  0.63161196  0.13413141    -0.81000
N2179       N  0.73890183  0.78561055  0.47733087    -0.07300
N2180       N  0.73234762  0.79982836  0.45876215    -0.59500
N2181       N  0.78984798  0.76913069  0.49690368    -0.07000
N2182       N  0.81661187  0.77357623  0.49240767    -0.61600
N2183       N  0.77200518  0.75192559  0.47723512    -0.06600
N2184       N  0.78617018  0.74466372  0.45881753    -0.59400
N2185       N  0.75614294  0.80356246  0.49691997    -0.06300
N2186       N  0.76125996  0.83047152  0.49224577    -0.61900
C2187       C  0.74629988  0.82768686  0.46831605     0.94800
C2188       C  0.81385439  0.75819051  0.46853533     0.94600
N2189       N  0.77227992  0.75179736  0.08255923    -0.07500
N2190       N  0.78567229  0.74450383  0.10129472    -0.60000
N2191       N  0.75720561  0.80372018  0.06283302    -0.05700
N2192       N  0.76209529  0.83063280  0.06743014    -0.61300
N2193       N  0.73945509  0.78577527  0.08225844    -0.07600
N2194       N  0.73225587  0.79999070  0.10062173    -0.60300
N2195       N  0.79082762  0.76905883  0.06324737    -0.05300
N2196       N  0.81745585  0.77355671  0.06837310    -0.61400
Mn2197     Mn  0.77544401  0.78731845  0.02974379     1.18400
C2198       C  0.81371200  0.75804107  0.09222891     0.96900
C2199       C  0.74629937  0.82780880  0.09108899     0.97600
N2200       N  0.71231218  0.69256026  0.47665339    -0.07600
N2201       N  0.71936525  0.67855014  0.45785724    -0.63900
N2202       N  0.66087558  0.70867240  0.49692396    -0.06400
N2203       N  0.63407621  0.70394958  0.49243106    -0.64600
N2204       N  0.67907282  0.72614247  0.47747647    -0.07100
N2205       N  0.66514339  0.73331080  0.45921243    -0.64200
N2206       N  0.69487121  0.67447573  0.49616131    -0.06000
N2207       N  0.69007850  0.64766813  0.49117619    -0.64800
Mn2208     Mn  0.72556932  0.73907415  0.47652677     1.10700
C2209       C  0.70547022  0.65066323  0.46715426     0.98100
C2210       C  0.63723387  0.71952752  0.46881482     0.98200
N2211       N  0.67987540  0.72633378  0.08275210    -0.07100
N2212       N  0.66586972  0.73316443  0.10174670    -0.62500
N2213       N  0.69572098  0.67454844  0.06285618    -0.06400
N2214       N  0.69108253  0.64778103  0.06755835    -0.59200
N2215       N  0.71298419  0.69273842  0.08229146    -0.07700
N2216       N  0.72014310  0.67890957  0.10068510    -0.62000
N2217       N  0.66179329  0.70890035  0.06337195    -0.06700
N2218       N  0.63493204  0.70390780  0.06864532    -0.59200
Mn2219     Mn  0.72613266  0.73920071  0.08302741     1.20200
Mn2220     Mn  0.67791253  0.69071832  0.02968179     1.10100
Cl2221     Cl  0.72661935  0.73907952  0.02963125    -0.87200
C2222       C  0.63795982  0.71917775  0.09271341     0.95100
C2223       C  0.70651904  0.65101490  0.09128392     0.94900
N2224       N  0.50937209  0.78584843  0.08548058    -0.07300
N2225       N  0.53021566  0.80005535  0.10405409    -0.59500
N2226       N  0.94206266  0.76941433  0.06649764    -0.07000
N2227       N  0.91996462  0.77416084  0.07124660    -0.61600
N2228       N  0.94252162  0.75198079  0.08590513    -0.06600
N2229       N  0.92120651  0.74487133  0.10440329    -0.59400
N2230       N  0.51010745  0.80377421  0.06598100    -0.06300
N2231       N  0.53195648  0.83067182  0.07071004    -0.61900
C2232       C  0.54415196  0.82788270  0.09459061     0.94800
C2233       C  0.90728815  0.75873454  0.09501297     0.94600
N2234       N  0.94239859  0.75186313  0.47942191    -0.07500
N2235       N  0.92151647  0.74457416  0.46085384    -0.60000
N2236       N  0.51014771  0.80408963  0.49805593    -0.05700
N2237       N  0.53223303  0.83091947  0.49347721    -0.61300
N2238       N  0.50955287  0.78606006  0.47840688    -0.07600
N2239       N  0.53074762  0.80011852  0.45990930    -0.60300
N2240       N  0.94126776  0.76912811  0.49893769    -0.05300
N2241       N  0.91907115  0.77358940  0.49416446    -0.61400
Mn2242     Mn  0.97647641  0.78755346  0.03314868     1.18400
C2243       C  0.90706899  0.75806984  0.47029414     0.96900
C2244       C  0.54477836  0.82791839  0.46959286     0.97600
N2245       N  0.94242813  0.69234603  0.08517042    -0.07600
N2246       N  0.92115840  0.67825837  0.10365570    -0.63900
N2247       N  0.51073582  0.70918498  0.06502964    -0.06400
N2248       N  0.53283356  0.70452041  0.06931602    -0.64600
N2249       N  0.50990632  0.72649312  0.08469859    -0.07100
N2250       N  0.53103661  0.73363944  0.10294734    -0.64200
N2251       N  0.94179609  0.67438626  0.06543194    -0.06000
N2252       N  0.91958906  0.64760413  0.06991747    -0.64800
Mn2253     Mn  0.97587736  0.73876636  0.08606926     1.10700
C2254       C  0.90706038  0.65048617  0.09388839     0.98100
C2255       C  0.54518459  0.71996645  0.09304677     0.98200
N2256       N  0.50872231  0.72610831  0.47716253    -0.07100
N2257       N  0.52976672  0.73288563  0.45842539    -0.62500
N2258       N  0.94260984  0.67483388  0.49834760    -0.06400
N2259       N  0.92089878  0.64783913  0.49360768    -0.59200
N2260       N  0.94308490  0.69276766  0.47899073    -0.07700
N2261       N  0.92216241  0.67848064  0.46053741    -0.62000
N2262       N  0.50902078  0.70849561  0.49642772    -0.06700
N2263       N  0.53080148  0.70332402  0.49138294    -0.59200
Mn2264     Mn  0.97615615  0.73941244  0.47835802     1.20200
Mn2265     Mn  0.97593653  0.69030244  0.03190147     1.10100
Cl2266     Cl  0.97629065  0.73896678  0.03260705    -0.87200
C2267       C  0.54341074  0.71866078  0.46755156     0.95100
C2268       C  0.90842651  0.65061571  0.46992261     0.94900
N2269       N  0.74002356  0.95647593  0.08400423    -0.07300
N2270       N  0.73335383  0.93572585  0.10278777    -0.59500
N2271       N  0.78976631  0.52315948  0.06331122    -0.07000
N2272       N  0.81649416  0.54534329  0.06796303    -0.61600
N2273       N  0.77149961  0.52236639  0.08285076    -0.06600
N2274       N  0.78526393  0.54352834  0.10133435    -0.59400
N2275       N  0.75764026  0.95589489  0.06449662    -0.06300
N2276       N  0.76291192  0.93425506  0.06941085    -0.61900
C2277       C  0.74765337  0.92197750  0.09342606     0.94800
C2278       C  0.81316570  0.55774972  0.09177361     0.94600
N2279       N  0.77314386  0.52244962  0.47793909    -0.07500
N2280       N  0.78766970  0.54316785  0.45918045    -0.60000
N2281       N  0.75611932  0.95521432  0.49869530    -0.05700
N2282       N  0.76083648  0.93308141  0.49418147    -0.61300
N2283       N  0.73901027  0.95587740  0.47911483    -0.07600
N2284       N  0.73203862  0.93465650  0.46074497    -0.60300
N2285       N  0.79091327  0.52278661  0.49733938    -0.05300
N2286       N  0.81801338  0.54427206  0.49235637    -0.61400
Mn2287     Mn  0.77544236  0.98960916  0.03082700     1.18400
C2288       C  0.81554282  0.55666870  0.46841935     0.96900
C2289       C  0.74558683  0.92056853  0.47042225     0.97600
N2290       N  0.71180178  0.52184824  0.08335020    -0.07600
N2291       N  0.71862051  0.54274054  0.10216492    -0.63900
N2292       N  0.66201339  0.95490109  0.06339804    -0.06400
N2293       N  0.63523769  0.93266259  0.06807438    -0.64600
N2294       N  0.68002508  0.95579317  0.08286081    -0.07100
N2295       N  0.66602284  0.93466429  0.10126307    -0.64200
N2296       N  0.69462161  0.52266307  0.06393127    -0.06000
N2297       N  0.68978416  0.54465815  0.06903549    -0.64800
Mn2298     Mn  0.72631354  0.98954833  0.08394054     1.10700
C2299       C  0.70488111  0.55684426  0.09302278     0.98100
C2300       C  0.63826658  0.92035985  0.09179688     0.98200
N2301       N  0.67954498  0.95590898  0.47802422    -0.07100
N2302       N  0.66569107  0.93529786  0.45896928    -0.62500
N2303       N  0.69639243  0.52422469  0.49808404    -0.06400
N2304       N  0.69147888  0.54610345  0.49316973    -0.59200
N2305       N  0.71398540  0.52346531  0.47862764    -0.07700
N2306       N  0.72105234  0.54429734  0.45996762    -0.62000
N2307       N  0.66119531  0.95515123  0.49745484    -0.06700
N2308       N  0.63435386  0.93350009  0.49217734    -0.59200
Mn2309     Mn  0.72604925  0.98924825  0.47801415     1.20200
Mn2310     Mn  0.67805766  0.98885121  0.03007104     1.10100
Cl2311     Cl  0.72670053  0.98913253  0.03046633    -0.87200
C2312       C  0.63760904  0.92144244  0.46805451     0.95100
C2313       C  0.70708444  0.55832379  0.46930284     0.94900
C2314       C  0.72164247  0.60912814  0.37985973    -0.04400
C2315       C  0.72351924  0.58632204  0.36617521    -0.07000
C2316       C  0.72565082  0.58567034  0.33686162    -0.22100
C2317       C  0.72623911  0.60785455  0.32024418     0.23600
C2318       C  0.72510759  0.63115775  0.33390084    -0.19700
C2319       C  0.72288993  0.63177280  0.36334663    -0.09600
C2320       C  0.72617374  0.60457684  0.28893531    -0.19900
C2321       C  0.73273542  0.62634096  0.27041139    -0.24700
C2322       C  0.73045536  0.62222787  0.23916467     0.25700
C2323       C  0.72830191  0.64314491  0.22286830    -0.21500
C2324       C  0.72479479  0.63982802  0.19370470    -0.11100
C2325       C  0.72348554  0.61549120  0.17982856    -0.11700
C2326       C  0.72674369  0.59503431  0.19595221    -0.04600
C2327       C  0.73026893  0.59837163  0.22524792    -0.19700
H2328       H  0.72270046  0.56848250  0.37805264     0.09400
H2329       H  0.72643727  0.56742936  0.32707670     0.09400
H2330       H  0.72490413  0.64847326  0.32207689     0.09100
H2331       H  0.72142165  0.64964195  0.37310128     0.10200
H2332       H  0.71987049  0.58287369  0.28102382     0.10300
H2333       H  0.73898913  0.64805514  0.27824902     0.12200
H2334       H  0.72872018  0.66191928  0.23282460     0.08700
H2335       H  0.72259498  0.65621290  0.18211144     0.10800
H2336       H  0.72625093  0.57623944  0.18599727     0.07400
H2337       H  0.73290547  0.58223583  0.23673223     0.10200
C2338       C  0.85514556  0.74217489  0.38146671    -0.04400
C2339       C  0.87519131  0.73575829  0.36801345    -0.07000
C2340       C  0.87528649  0.73287424  0.33875435    -0.22100
C2341       C  0.85540897  0.73631028  0.32201717     0.23600
C2342       C  0.83497042  0.74229283  0.33550752    -0.19700
C2343       C  0.83477899  0.74502250  0.36487014    -0.09600
C2344       C  0.85817118  0.73512208  0.29074217    -0.19900
C2345       C  0.83826489  0.73368497  0.27215947    -0.24700
C2346       C  0.84204183  0.73477608  0.24081248     0.25700
C2347       C  0.81964628  0.73378097  0.22422167    -0.21500
C2348       C  0.82270613  0.73678476  0.19496409    -0.11100
C2349       C  0.84830972  0.74082714  0.18134119    -0.11700
C2350       C  0.87033074  0.74078389  0.19773993    -0.04600
C2351       C  0.86731990  0.73785446  0.22705608    -0.19700
H2352       H  0.89114740  0.73329777  0.38005520     0.09400
H2353       H  0.89131446  0.72830777  0.32911079     0.09400
H2354       H  0.81958943  0.74574648  0.32367196     0.09100
H2355       H  0.81915694  0.75016662  0.37448605     0.10200
H2356       H  0.87783431  0.73564669  0.28306711     0.10300
H2357       H  0.81810574  0.73199385  0.28004255     0.12200
H2358       H  0.79983649  0.73125299  0.23398590     0.08700
H2359       H  0.80513547  0.73647561  0.18309117     0.10800
H2360       H  0.89029908  0.74371432  0.18800788     0.07400
H2361       H  0.88522656  0.73859552  0.23853376     0.10200
C2362       C  0.85728723  0.61259099  0.38106975    -0.04400
C2363       C  0.87700897  0.63919149  0.36789920    -0.07000
C2364       C  0.87691786  0.64220151  0.33871650    -0.22100
C2365       C  0.85726635  0.61874654  0.32174352     0.23600
C2366       C  0.83709452  0.59220542  0.33500325    -0.19700
C2367       C  0.83711828  0.58925246  0.36427743    -0.09600
C2368       C  0.85920259  0.62317275  0.29055656    -0.19900
C2369       C  0.84279433  0.60225506  0.27161495    -0.24700
C2370       C  0.84554675  0.60641327  0.24048935     0.25700
C2371       C  0.82272372  0.58565504  0.22373191    -0.21500
C2372       C  0.82492570  0.58693134  0.19443020    -0.11100
C2373       C  0.85020758  0.60895429  0.18095053    -0.10200
C2374       C  0.87277886  0.63036323  0.19762103    -0.04600
C2375       C  0.87056487  0.62908562  0.22706989    -0.19700
H2376       H  0.89276698  0.65775743  0.38011406     0.09400
H2377       H  0.89260230  0.66296034  0.32932821     0.09400
H2378       H  0.82126896  0.57344788  0.32320638     0.09100
H2379       H  0.82161233  0.56845939  0.37369551     0.10200
H2380       H  0.87506698  0.64485223  0.28305464     0.10300
H2381       H  0.82617906  0.58081289  0.27882634     0.12200
H2382       H  0.80319076  0.56797840  0.23337719     0.08700
H2383       H  0.80699452  0.57011745  0.18237845     0.10800
H2384       H  0.89260536  0.64757995  0.18796741     0.07400
H2385       H  0.88896785  0.64526102  0.23902426     0.10200
C2386       C  0.59766250  0.73553407  0.18078432    -0.04400
C2387       C  0.57602627  0.73954057  0.19435449    -0.07000
C2388       C  0.57627797  0.74328577  0.22347006    -0.22100
C2389       C  0.59800038  0.74297614  0.23997769     0.23600
C2390       C  0.62028425  0.73990893  0.22635772    -0.19700
C2391       C  0.62002007  0.73613160  0.19710726    -0.09600
C2392       C  0.59603512  0.74549222  0.27114110    -0.19900
C2393       C  0.61063357  0.73843097  0.28968405    -0.24700
C2394       C  0.60700676  0.73854728  0.32080174     0.25700
C2395       C  0.62894475  0.73905703  0.33758997    -0.21500
C2396       C  0.62576551  0.73669036  0.36677477    -0.11100
C2397       C  0.60035829  0.73350098  0.38011542    -0.11700
C2398       C  0.57851680  0.73358171  0.36341852    -0.04600
C2399       C  0.58175384  0.73603267  0.33404685    -0.19700
H2400       H  0.55853662  0.73945831  0.18253806     0.09400
H2401       H  0.55901034  0.74587372  0.23320457     0.09400
H2402       H  0.63807137  0.74047608  0.23795026     0.09100
H2403       H  0.63717623  0.73340434  0.18734521     0.10200
H2404       H  0.58104549  0.75244224  0.27897785     0.10300
H2405       H  0.62583464  0.73171075  0.28205153     0.12200
H2406       H  0.64855488  0.74087602  0.32802903     0.08700
H2407       H  0.64314442  0.73681811  0.37882548     0.10800
H2408       H  0.55861145  0.73102663  0.37294965     0.07400
H2409       H  0.56397047  0.73484708  0.32189701     0.10200
C2410       C  0.60213895  0.86830348  0.18058539    -0.04400
C2411       C  0.62810309  0.88953536  0.19354311    -0.07000
C2412       C  0.63101739  0.89027357  0.22274400    -0.22100
C2413       C  0.60820669  0.86979904  0.23989864     0.23600
C2414       C  0.58253573  0.84782589  0.22690171    -0.19700
C2415       C  0.57963172  0.84706572  0.19757718    -0.09600
C2416       C  0.61157523  0.87369033  0.27104940    -0.19900
C2417       C  0.59420288  0.85328893  0.29000457    -0.24700
C2418       C  0.59607701  0.85801971  0.32112388     0.25700
C2419       C  0.57252820  0.83782393  0.33774222    -0.21500
C2420       C  0.57252585  0.84125375  0.36688757    -0.11100
C2421       C  0.59618934  0.86504766  0.38043393    -0.11700
C2422       C  0.62010361  0.88508931  0.36395598    -0.04600
C2423       C  0.62014306  0.88160330  0.33464639    -0.19700
H2424       H  0.64603794  0.90615315  0.18119892     0.09400
H2425       H  0.65105145  0.90739692  0.23203140     0.09400
H2426       H  0.56411287  0.83183212  0.23910921     0.09100
H2427       H  0.55932392  0.83041977  0.18832936     0.10200
H2428       H  0.62890536  0.89475538  0.27837652     0.10300
H2429       H  0.57703273  0.83215557  0.28261587     0.12200
H2430       H  0.55376287  0.81937309  0.32809012     0.08700
H2431       H  0.55367542  0.82527183  0.37874944     0.10800
H2432       H  0.63879309  0.90352381  0.37368122     0.07400
H2433       H  0.63918198  0.89734622  0.32295027     0.10200
C2434       C  0.73489513  0.86657996  0.18083333    -0.04400
C2435       C  0.72956453  0.84041411  0.19376350    -0.07000
C2436       C  0.72826924  0.83781673  0.22302171    -0.22100
C2437       C  0.73208725  0.86115259  0.24031213     0.23600
C2438       C  0.73694896  0.88727134  0.22746798    -0.19700
C2439       C  0.73820653  0.88986504  0.19805188    -0.09600
C2440       C  0.73233925  0.85755871  0.27140483    -0.19900
C2441       C  0.72862940  0.87449888  0.29055467    -0.24700
C2442       C  0.72964843  0.87158604  0.32175754     0.25700
C2443       C  0.72580038  0.89120506  0.33897757    -0.21500
C2444       C  0.72762671  0.89044913  0.36822699    -0.11100
C2445       C  0.73329821  0.86992058  0.38121820    -0.11700
C2446       C  0.73649071  0.84978279  0.36416403    -0.04600
C2447       C  0.73477917  0.85060027  0.33480892    -0.19700
H2448       H  0.72680509  0.82192815  0.18129257     0.09400
H2449       H  0.72454607  0.81746916  0.23220937     0.09400
H2450       H  0.74072164  0.90610187  0.23987484     0.09100
H2451       H  0.74258017  0.91040661  0.18883980     0.10200
H2452       H  0.73527541  0.83971088  0.27838963     0.10300
H2453       H  0.72446306  0.89149035  0.28319545     0.12200
H2454       H  0.72170394  0.90753608  0.32974326     0.08700
H2455       H  0.72489288  0.90625781  0.38062802     0.10800
H2456       H  0.74093319  0.83371977  0.37344986     0.07400
H2457       H  0.73783831  0.83487534  0.32278043     0.10200
C2458       C  0.73491687  0.86848326  0.65059483     0.79000
N2459       N  0.73725179  0.84777657  0.63551193    -0.79300
C2460       C  0.74347391  0.85115030  0.60757033     0.81400
N2461       N  0.74711951  0.87549941  0.59424251    -0.79300
C2462       C  0.74398228  0.89609291  0.60891192     0.81500
N2463       N  0.73796298  0.89253744  0.63706573    -0.81000
C2464       C  0.73623367  0.86895892  0.91189737     0.79000
N2465       N  0.74031151  0.84856298  0.92518983    -0.79300
C2466       C  0.74752608  0.85169479  0.95293469     0.81400
N2467       N  0.75086321  0.87550234  0.96750857    -0.79300
C2468       C  0.74629852  0.89566345  0.95437648     0.81500
N2469       N  0.73884991  0.89214345  0.92682193    -0.81000
C2470       C  0.59488569  0.86756413  0.91220173     0.79000
N2471       N  0.57211276  0.84707576  0.92754696    -0.79300
C2472       C  0.56987178  0.85067196  0.95553175     0.81400
N2473       N  0.59081559  0.87506920  0.96866431    -0.79300
C2474       C  0.61426803  0.89543929  0.95369399     0.81500
N2475       N  0.61624055  0.89163863  0.92552137    -0.81000
C2476       C  0.59516000  0.86984604  0.65027563     0.79000
N2477       N  0.61588227  0.89298914  0.63551147    -0.79300
C2478       C  0.61263922  0.89589535  0.60768838     0.81400
N2479       N  0.58842739  0.87522969  0.59415471    -0.79300
C2480       C  0.56784283  0.85146705  0.60853828     0.81500
N2481       N  0.57124942  0.84886203  0.63654415    -0.81000
C2482       C  0.59178621  0.72613364  0.64947171     0.79000
N2483       N  0.61348693  0.72412808  0.63564790    -0.79300
C2484       C  0.61190418  0.71920941  0.60733067     0.81400
N2485       N  0.58859203  0.71642385  0.59271676    -0.79300
C2486       C  0.56734999  0.71925802  0.60633149     0.81500
N2487       N  0.56913405  0.72412211  0.63445764    -0.81000
C2488       C  0.59717564  0.72947951  0.91133262     0.79000
N2489       N  0.57331050  0.72629566  0.92572236    -0.79300
C2490       C  0.57004300  0.72009548  0.95372989     0.81400
N2491       N  0.59081356  0.71705414  0.96754030    -0.79300
C2492       C  0.61507549  0.72090339  0.95345679     0.81500
N2493       N  0.61815035  0.72718255  0.92554540    -0.81000
C2494       C  0.85810057  0.61022358  0.91226124     0.79000
N2495       N  0.88066701  0.63100225  0.92746674    -0.79300
C2496       C  0.88241916  0.62793924  0.95554697     0.81400
N2497       N  0.86123716  0.60374581  0.96886922    -0.79300
C2498       C  0.83799504  0.58312123  0.95405499     0.81500
N2499       N  0.83648960  0.58644265  0.92582225    -0.81000
C2500       C  0.85512525  0.60820689  0.65024997     0.79000
N2501       N  0.87919099  0.62920875  0.63650013    -0.79300
C2502       C  0.88294785  0.62675500  0.60839997     0.81400
N2503       N  0.86241816  0.60312820  0.59386016    -0.79300
C2504       C  0.83796497  0.58246547  0.60739176     0.81500
N2505       N  0.83449021  0.58520517  0.63535259    -0.81000
C2506       C  0.85291613  0.74797038  0.65057203     0.79000
N2507       N  0.87660676  0.75033875  0.63652363    -0.79300
C2508       C  0.88055550  0.75676923  0.60860965     0.81400
N2509       N  0.86057162  0.76084683  0.59445484    -0.79300
C2510       C  0.83640595  0.75780569  0.60815585     0.81500
N2511       N  0.83270186  0.75131180  0.63606586    -0.81000
C2512       C  0.85912037  0.74842123  0.91218903     0.79000
N2513       N  0.88228381  0.75160357  0.92721627    -0.79300
C2514       C  0.88438782  0.75765320  0.95519252     0.81400
N2515       N  0.86300989  0.76045495  0.96852320    -0.79300
C2516       C  0.83930811  0.75653481  0.95386086     0.81500
N2517       N  0.83740800  0.75049885  0.92581021    -0.81000
C2518       C  0.71862793  0.60883515  0.91077698     0.79000
N2519       N  0.71549646  0.62980209  0.92460811    -0.79300
C2520       C  0.70793393  0.62671161  0.95239321     0.81400
N2521       N  0.70364149  0.60254295  0.96658284    -0.79300
C2522       C  0.70743849  0.58185642  0.95303922     0.81500
N2523       N  0.71492525  0.58517060  0.92534306    -0.81000
C2524       C  0.71419869  0.61063363  0.65036026     0.79000
N2525       N  0.71154429  0.58655848  0.63684369    -0.79300
C2526       C  0.70521866  0.58236048  0.60887646     0.81400
N2527       N  0.70163013  0.60243610  0.59426026    -0.79300
C2528       C  0.70497191  0.62686246  0.60749901     0.81500
N2529       N  0.71128825  0.63078587  0.63533038    -0.81000
N2530       N  0.74094942  0.78572936  0.97673447    -0.07300
N2531       N  0.73471244  0.80001342  0.95798585    -0.59500
N2532       N  0.79129402  0.76877161  0.99656606    -0.07000
N2533       N  0.81805519  0.77327888  0.99205791    -0.61600
N2534       N  0.77344741  0.75156900  0.97690478    -0.06600
N2535       N  0.78763143  0.74436481  0.95844383    -0.59400
N2536       N  0.75831512  0.80370964  0.99623777    -0.06300
N2537       N  0.76384909  0.83072544  0.99131932    -0.61900
C2538       C  0.74900195  0.82794759  0.96731004     0.94800
C2539       C  0.81531138  0.75793054  0.96818372     0.94600
N2540       N  0.77117784  0.75208015  0.58314508    -0.07500
N2541       N  0.78493552  0.74533080  0.60201219    -0.60000
N2542       N  0.75542230  0.80356376  0.56359620    -0.05700
N2543       N  0.76024748  0.83042247  0.56844968    -0.61300
N2544       N  0.73777673  0.78546899  0.58299331    -0.07600
N2545       N  0.73059489  0.79951918  0.60157583    -0.60300
N2546       N  0.78957636  0.76946773  0.56378296    -0.05300
N2547       N  0.81640074  0.77452736  0.56897949    -0.61400
Mn2548     Mn  0.77376974  0.78742410  0.53027673     1.18400
C2549       C  0.81301817  0.75928369  0.59295474     0.96900
C2550       C  0.74454051  0.82740587  0.59223715     0.97600
N2551       N  0.71346946  0.69248843  0.97652344    -0.07600
N2552       N  0.72040745  0.67835542  0.95778858    -0.63900
N2553       N  0.66240162  0.70909461  0.99654264    -0.06400
N2554       N  0.63563662  0.70437247  0.99192432    -0.64600
N2555       N  0.68063475  0.72643503  0.97702827    -0.07100
N2556       N  0.66672998  0.73349049  0.95859422    -0.64200
N2557       N  0.69590286  0.67448351  0.99601243    -0.06000
N2558       N  0.69087870  0.64758505  0.99105085    -0.64800
Mn2559     Mn  0.72709578  0.73905974  0.97615822     1.10700
C2560       C  0.70630575  0.65047288  0.96707980     0.98100
C2561       C  0.63880093  0.71974895  0.96815617     0.98200
N2562       N  0.67819802  0.72574958  0.58306292    -0.07100
N2563       N  0.66386349  0.73235164  0.60192455    -0.62500
N2564       N  0.69438676  0.67428767  0.56308933    -0.06400
N2565       N  0.68918725  0.64737332  0.56807674    -0.59200
N2566       N  0.71159924  0.69243554  0.58258950    -0.07700
N2567       N  0.71813850  0.67840305  0.60131780    -0.62000
N2568       N  0.66034612  0.70835862  0.56351340    -0.06700
N2569       N  0.63339596  0.70319506  0.56848958    -0.59200
Mn2570     Mn  0.72468296  0.73893998  0.58350368     1.20200
Mn2571     Mn  0.67664095  0.69042747  0.52989560     1.10100
Cl2572     Cl  0.72517665  0.73895521  0.53004807    -0.87200
C2573       C  0.63604094  0.71827698  0.59256993     0.95100
C2574       C  0.70422505  0.65045587  0.59203733     0.94900
N2575       N  0.50841391  0.78564610  0.58394388    -0.07300
N2576       N  0.52896427  0.79969067  0.60284498    -0.59500
N2577       N  0.94075072  0.76902307  0.56550684    -0.07000
N2578       N  0.91845423  0.77347508  0.57016612    -0.61600
N2579       N  0.94149680  0.75181442  0.58499439    -0.06600
N2580       N  0.92011996  0.74456359  0.60347591    -0.59400
N2581       N  0.50928913  0.80380766  0.56462968    -0.06300
N2582       N  0.53094582  0.83069079  0.56981936    -0.61900
C2583       C  0.54288491  0.82766671  0.59377165     0.94800
C2584       C  0.90587937  0.75808615  0.59395002     0.94600
N2585       N  0.94388374  0.75248366  0.98009938    -0.07500
N2586       N  0.92325528  0.74546618  0.96134630    -0.60000
N2587       N  0.51075801  0.80345236  0.99947956    -0.05700
N2588       N  0.53284876  0.83026086  0.99478450    -0.61300
N2589       N  0.51020312  0.78530992  0.97999277    -0.07600
N2590       N  0.53144027  0.79923155  0.96151763    -0.60300
N2591       N  0.94277214  0.76973334  0.99963818    -0.05300
N2592       N  0.92078167  0.77447514  0.99465526    -0.61400
Mn2593     Mn  0.97508476  0.78757960  0.53223051     1.18400
C2594       C  0.90895586  0.75912294  0.97063628     0.96900
C2595       C  0.54544559  0.82708983  0.97101022     0.97600
N2596       N  0.94299008  0.69284493  0.58470242    -0.07600
N2597       N  0.92197305  0.67854028  0.60338171    -0.63900
N2598       N  0.50887132  0.70855701  0.56295780    -0.06400
N2599       N  0.53074173  0.70352261  0.56736627    -0.64600
N2600       N  0.50825210  0.72594552  0.58266151    -0.07100
N2601       N  0.52920984  0.73275112  0.60101844    -0.64200
N2602       N  0.94264414  0.67494274  0.56503312    -0.06000
N2603       N  0.92085153  0.64797044  0.56979741    -0.64800
Mn2604     Mn  0.97570214  0.73957109  0.58532835     1.10700
C2605       C  0.90828575  0.65067377  0.59385316     0.98100
C2606       C  0.54312999  0.71883979  0.59120451     0.98200
N2607       N  0.51037261  0.72604610  0.97915095    -0.07100
N2608       N  0.53106472  0.73270334  0.96007274    -0.62500
N2609       N  0.94184150  0.67464644  0.99897032    -0.06400
N2610       N  0.91934371  0.64805368  0.99438050    -0.59200
N2611       N  0.94292614  0.69290894  0.97966863    -0.07700
N2612       N  0.92165291  0.67926825  0.96141075    -0.62000
N2613       N  0.51117654  0.70877440  0.99849761    -0.06700
N2614       N  0.53297688  0.70369332  0.99312008    -0.59200
Mn2615     Mn  0.97683732  0.73915817  0.97922578     1.20200
Mn2616     Mn  0.97673632  0.69137188  0.53122040     1.10100
Cl2617     Cl  0.97596383  0.73949796  0.53182210    -0.87200
C2618       C  0.54505265  0.71877760  0.96902132     0.95100
C2619       C  0.90704365  0.65144280  0.97085969     0.94900
N2620       N  0.73806825  0.95602283  0.58481352    -0.07300
N2621       N  0.73120986  0.93522544  0.60358861    -0.59500
N2622       N  0.79029908  0.52321118  0.56398207    -0.07000
N2623       N  0.81719248  0.54516105  0.56852534    -0.61600
N2624       N  0.77220775  0.52280870  0.58354996    -0.06600
N2625       N  0.78630718  0.54400696  0.60193422    -0.59400
N2626       N  0.75569312  0.95536998  0.56534638    -0.06300
N2627       N  0.76077870  0.93360464  0.57032500    -0.61900
C2628       C  0.74540263  0.92134722  0.59431603     0.94800
C2629       C  0.81419816  0.55784292  0.59229539     0.94600
N2630       N  0.77218840  0.52213078  0.97719234    -0.07500
N2631       N  0.78631393  0.54335205  0.95878835    -0.60000
N2632       N  0.75769108  0.95509784  0.99783943    -0.05700
N2633       N  0.76267441  0.93312333  0.99322319    -0.61300
N2634       N  0.74026190  0.95542153  0.97840054    -0.07600
N2635       N  0.73334329  0.93417158  0.96008207    -0.60300
N2636       N  0.79009081  0.52294225  0.99671707    -0.05300
N2637       N  0.81684634  0.54523340  0.99215912    -0.61400
Mn2638     Mn  0.77391713  0.98936332  0.53173302     1.18400
C2639       C  0.81405573  0.55763525  0.96837768     0.96900
C2640       C  0.74725592  0.92038321  0.96956021     0.97600
N2641       N  0.71234886  0.52291430  0.58442159    -0.07600
N2642       N  0.71843873  0.54348420  0.60347895    -0.63900
N2643       N  0.66050251  0.95505367  0.56426589    -0.06400
N2644       N  0.63363999  0.93295954  0.56885253    -0.64600
N2645       N  0.67834994  0.95585585  0.58385672    -0.07100
N2646       N  0.66412943  0.93478594  0.60228171    -0.64200
N2647       N  0.69517720  0.52358616  0.56490801    -0.06000
N2648       N  0.68963198  0.54507109  0.57011879    -0.64800
Mn2649     Mn  0.72477160  0.98935797  0.58492357     1.10700
C2650       C  0.70426072  0.55718572  0.59428419     0.98100
C2651       C  0.63642011  0.92062825  0.59266312     0.98200
N2652       N  0.68044091  0.95513437  0.97736191    -0.07100
N2653       N  0.66626723  0.93427396  0.95859599    -0.62500
N2654       N  0.69512265  0.52279682  0.99689283    -0.06400
N2655       N  0.69028054  0.54474341  0.99203449    -0.59200
N2656       N  0.71257565  0.52193366  0.97734931    -0.07700
N2657       N  0.71965059  0.54278441  0.95870527    -0.62000
N2658       N  0.66231193  0.95472461  0.99684892    -0.06700
N2659       N  0.63536765  0.93312012  0.99197216    -0.59200
Mn2660     Mn  0.72705652  0.98858918  0.97699969     1.20200
Mn2661     Mn  0.67678535  0.98909673  0.53111122     1.10100
Cl2662     Cl  0.72535824  0.98924821  0.53145912    -0.87200
C2663       C  0.63826879  0.92067771  0.96799988     0.95100
C2664       C  0.70578257  0.55689704  0.96809128     0.94900
C2665       C  0.72528389  0.61111164  0.88003055    -0.04400
C2666       C  0.72581331  0.58789534  0.86571303    -0.07000
C2667       C  0.73016852  0.58886832  0.83659768    -0.22100
C2668       C  0.73388753  0.61290322  0.82084047     0.23600
C2669       C  0.73456924  0.63675893  0.83520022    -0.19700
C2670       C  0.73024248  0.63581210  0.86445820    -0.09600
C2671       C  0.73633394  0.61163800  0.78959430    -0.19900
C2672       C  0.72914706  0.62666236  0.77159264    -0.24700
C2673       C  0.72770929  0.62272284  0.74034682     0.25700
C2674       C  0.72592842  0.64369035  0.72378178    -0.21500
C2675       C  0.72217236  0.64000393  0.69466931    -0.11100
C2676       C  0.71990169  0.61506593  0.68117933    -0.11700
C2677       C  0.72217777  0.59424133  0.69762858    -0.04600
C2678       C  0.72597182  0.59794950  0.72684614    -0.19700
H2679       H  0.72230238  0.56857341  0.87690544     0.09400
H2680       H  0.72983759  0.57032134  0.82622375     0.09400
H2681       H  0.73839269  0.65616842  0.82402893     0.09100
H2682       H  0.73042437  0.65428457  0.87480331     0.10200
H2683       H  0.74252148  0.59623934  0.78135114     0.10300
H2684       H  0.72290776  0.64198392  0.77999260     0.12200
H2685       H  0.72705652  0.66291005  0.73346908     0.08700
H2686       H  0.72058641  0.65660156  0.68281253     0.10800
H2687       H  0.72043539  0.57473070  0.68802654     0.07400
H2688       H  0.72652386  0.58081606  0.73866286     0.10200
C2689       C  0.85846552  0.74415253  0.88112291    -0.04400
C2690       C  0.88236536  0.74464506  0.86708518    -0.07000
C2691       C  0.88309130  0.74306882  0.83773753    -0.22100
C2692       C  0.85988234  0.74064385  0.82150759     0.23600
C2693       C  0.83557701  0.73946379  0.83552405    -0.19700
C2694       C  0.83489557  0.74115507  0.86497035    -0.09600
C2695       C  0.86298507  0.74133440  0.79019315    -0.19900
C2696       C  0.84051404  0.73255122  0.77210657    -0.24700
C2697       C  0.84410045  0.73529408  0.74084015     0.25700
C2698       C  0.82145019  0.73460997  0.72495824    -0.21500
C2699       C  0.82411529  0.73828978  0.69574074    -0.11100
C2700       C  0.84945954  0.74246661  0.68148088    -0.11700
C2701       C  0.87176677  0.74214791  0.69723090    -0.04600
C2702       C  0.86914449  0.73857593  0.72651623    -0.19700
H2703       H  0.90095448  0.74693335  0.87870956     0.09400
H2704       H  0.90213034  0.74412444  0.82762629     0.09400
H2705       H  0.81746465  0.73827200  0.82397356     0.09100
H2706       H  0.81617249  0.74079971  0.87501607     0.10200
H2707       H  0.88504547  0.74997394  0.78194283     0.10300
H2708       H  0.81844772  0.72389205  0.78036093     0.12200
H2709       H  0.80176169  0.73177854  0.73527673     0.08700
H2710       H  0.80634734  0.73814005  0.68437480     0.10800
H2711       H  0.89148190  0.74499720  0.68698909     0.07400
H2712       H  0.88674041  0.73823532  0.73764762     0.10200
C2713       C  0.85824456  0.61307084  0.88108860    -0.04400
C2714       C  0.88245252  0.63635500  0.86744062    -0.07000
C2715       C  0.88386252  0.63835948  0.83812198    -0.22100
C2716       C  0.86103941  0.61742429  0.82150092     0.23600
C2717       C  0.83657667  0.59420481  0.83505633    -0.19700
C2718       C  0.83522141  0.59210349  0.86451255    -0.09600
C2719       C  0.86451120  0.62010966  0.79027239    -0.19900
C2720       C  0.84215088  0.60703857  0.77198548    -0.24700
C2721       C  0.84594562  0.60901693  0.74075286     0.25700
C2722       C  0.82349244  0.58751895  0.72419359    -0.21500
C2723       C  0.82626444  0.58767411  0.69491193    -0.11100
C2724       C  0.85156764  0.60953401  0.68126328    -0.10200
C2725       C  0.87365199  0.63174245  0.69771790    -0.04600
C2726       C  0.87088907  0.63154844  0.72711089    -0.19700
H2727       H  0.90070664  0.65290265  0.87936785     0.09400
H2728       H  0.90302820  0.65637999  0.82835507     0.09400
H2729       H  0.81880189  0.57713808  0.82313515     0.09100
H2730       H  0.81634473  0.57377216  0.87425650     0.10200
H2731       H  0.88664965  0.63358293  0.78225082     0.10300
H2732       H  0.82000833  0.59354106  0.77999838     0.12200
H2733       H  0.80387817  0.57012171  0.73400133     0.08700
H2734       H  0.80863821  0.57031292  0.68302055     0.10800
H2735       H  0.89328840  0.64910083  0.68793914     0.07400
H2736       H  0.88828447  0.64918680  0.73888673     0.10200
C2737       C  0.59186698  0.72955241  0.68064011    -0.04400
C2738       C  0.56779260  0.72910641  0.69430876    -0.07000
C2739       C  0.56661217  0.73066250  0.72360297    -0.22100
C2740       C  0.58954561  0.73306561  0.74020230     0.23600
C2741       C  0.61390613  0.73387912  0.72663667    -0.19700
C2742       C  0.61502569  0.73214652  0.69718393    -0.09600
C2743       C  0.58614238  0.73283248  0.77145295    -0.19900
C2744       C  0.60865704  0.74303226  0.78962706    -0.24700
C2745       C  0.60512557  0.74092435  0.82092295     0.25700
C2746       C  0.62851390  0.74354356  0.83697815    -0.21500
C2747       C  0.62606395  0.74034149  0.86621668    -0.11100
C2748       C  0.60017863  0.73470719  0.88037985    -0.11700
C2749       C  0.57706717  0.73317560  0.86448192    -0.04600
C2750       C  0.57947940  0.73626028  0.83511143    -0.19700
H2751       H  0.54944655  0.72705142  0.68241931     0.09400
H2752       H  0.54751613  0.72979569  0.73337421     0.09400
H2753       H  0.63174053  0.73493472  0.73859595     0.09100
H2754       H  0.63381338  0.73238248  0.68743168     0.10200
H2755       H  0.56395505  0.72358365  0.77954207     0.10300
H2756       H  0.63081560  0.75243305  0.78137658     0.12200
H2757       H  0.64864629  0.74746299  0.82678059     0.08700
H2758       H  0.64446343  0.74196284  0.87768210     0.10800
H2759       H  0.55690705  0.72915263  0.87466325     0.07400
H2760       H  0.56122542  0.73504999  0.82380087     0.10200
C2761       C  0.59867030  0.86825411  0.68108516    -0.04400
C2762       C  0.62568931  0.88721800  0.69381120    -0.07000
C2763       C  0.62879721  0.88748147  0.72295811    -0.22100
C2764       C  0.60505792  0.86889672  0.74033018     0.23600
C2765       C  0.57803108  0.84948055  0.72757928    -0.19700
C2766       C  0.57498218  0.84908619  0.69828128    -0.09600
C2767       C  0.60944139  0.87188060  0.77144339    -0.19900
C2768       C  0.59007040  0.85336434  0.79059683    -0.24700
C2769       C  0.59356523  0.85737332  0.82176971     0.25700
C2770       C  0.57249193  0.83513858  0.83899333    -0.21500
C2771       C  0.57341071  0.83821882  0.86822495    -0.11100
C2772       C  0.59550541  0.86373231  0.88120919    -0.11700
C2773       C  0.61707689  0.88578139  0.86413712    -0.04600
C2774       C  0.61612164  0.88273831  0.83477768    -0.19700
H2775       H  0.64449257  0.90221026  0.68127152     0.09400
H2776       H  0.64986385  0.90267803  0.73201465     0.09400
H2777       H  0.55888424  0.83507340  0.73990953     0.09100
H2778       H  0.55381075  0.83435213  0.68918699     0.10200
H2779       H  0.62981739  0.89037541  0.77854431     0.10300
H2780       H  0.57039235  0.83407793  0.78337812     0.12200
H2781       H  0.55487211  0.81535137  0.82977227     0.08700
H2782       H  0.55642304  0.82065791  0.88060326     0.10800
H2783       H  0.63437411  0.90573570  0.87340069     0.07400
H2784       H  0.63278932  0.90070172  0.82267226     0.10200
C2785       C  0.72983322  0.86477630  0.68154225    -0.04400
C2786       C  0.71928716  0.83703135  0.69379942    -0.07000
C2787       C  0.71653592  0.83354892  0.72299998    -0.22100
C2788       C  0.72420652  0.85762264  0.74084664     0.23600
C2789       C  0.73442378  0.88541550  0.72863535    -0.19700
C2790       C  0.73701274  0.88887410  0.69930279    -0.09600
C2791       C  0.72304076  0.85296006  0.77188364    -0.19900
C2792       C  0.72258607  0.87160191  0.79123285    -0.24700
C2793       C  0.72348224  0.86785581  0.82224904     0.25700
C2794       C  0.71519492  0.88369580  0.84034307    -0.21500
C2795       C  0.71835015  0.88318933  0.86947238    -0.11100
C2796       C  0.72990595  0.86677466  0.88131770    -0.11700
C2797       C  0.73723098  0.85004674  0.86337513    -0.04600
C2798       C  0.73427843  0.85072110  0.83416574    -0.19700
H2799       H  0.71344656  0.81793759  0.68081031     0.09400
H2800       H  0.70871853  0.81192132  0.73171172     0.09400
H2801       H  0.74134097  0.90472409  0.74154352     0.09100
H2802       H  0.74553987  0.91059386  0.69058207     0.10200
H2803       H  0.72194822  0.83288940  0.77887365     0.10300
H2804       H  0.72110440  0.89036834  0.78425747     0.12200
H2805       H  0.70681648  0.89706993  0.83185878     0.08700
H2806       H  0.71227477  0.89617359  0.88268756     0.10800
H2807       H  0.74642031  0.83737702  0.87180493     0.07400
H2808       H  0.74160817  0.83870938  0.82110604     0.10200
loop_ 
_geom_bond_atom_site_label_1 
_geom_bond_atom_site_label_2 
_geom_bond_distance 
_geom_bond_site_symmetry_2 
_ccdc_geom_bond_type 
C1            N2   1.354       .  A
C1            N6   1.360       .  A
C1          C328   1.487       .  S
N2            C3   1.354       .  A
C3            N4   1.358       .  A
C3           C93   1.462       .  S
N4            C5   1.361       .  A
C5            N6   1.364       .  A
C5          C171   1.468       .  S
C7            N8   1.360       .  A
C7           N12   1.354       .  A
C7          C339   1.487       .  S
N8            C9   1.363       .  A
C9           N10   1.360       .  A
C9           C81   1.466       .  S
N10          C11   1.358       .  A
C11          N12   1.354       .  A
C11         C183   1.460       .  S
C13          N14   1.356       .  A
C13          N18   1.361       .  A
C13         C315   1.491       .  S
N14          C15   1.356       .  A
C15          N16   1.357       .  A
C15         C138   1.463       .  S
N16          C17   1.360       .  A
C17          N18   1.364       .  A
C17         C206   1.468       .  S
C19          N20   1.355       .  A
C19          N24   1.359       .  A
C19         C304   1.490       .  S
N20          C21   1.357       .  A
C21          N22   1.358       .  A
C21         C194   1.461       .  S
N22          C23   1.360       .  A
C23          N24   1.363       .  A
C23         C126   1.465       .  S
C25          N26   1.359       .  A
C25          N30   1.356       .  A
C25         C280   1.488       .  S
N26          C27   1.363       .  A
C27          N28   1.360       .  A
C27         C116   1.466       .  S
N28          C29   1.358       .  A
C29          N30   1.356       .  A
C29         C149   1.463       .  S
C31          N32   1.360       .  A
C31          N36   1.355       .  A
C31         C291   1.488       .  S
N32          C33   1.364       .  A
C33          N34   1.362       .  A
C33         C161   1.472       .  S
N34          C35   1.360       .  A
C35          N36   1.355       .  A
C35         C104   1.465       .  S
C37          N38   1.354       .  A
C37          N42   1.360       .  A
C37         C256   1.487       .  S
N38          C39   1.354       .  A
C39          N40   1.360       .  A
C39         C162   1.463       .  S
N40          C41   1.362       .  A
C41          N42   1.364       .  A
C41         C182   1.471       .  S
C43          N44   1.359       .  A
C43          N48   1.356       .  A
C43         C267   1.486       .  S
N44          C45   1.362       .  A
C45          N46   1.359       .  A
C45         C148   1.465       .  S
N46          C47   1.358       .  A
C47          N48   1.356       .  A
C47         C172   1.463       .  S
C49          N50   1.357       .  A
C49          N54   1.358       .  A
C49         C243   1.487       .  S
N50          C51   1.359       .  A
C51          N52   1.360       .  A
C51         C127   1.464       .  S
N52          C53   1.359       .  A
C53          N54   1.360       .  A
C53          C92   1.466       .  S
C55          N56   1.355       .  A
C55          N60   1.358       .  A
C55         C232   1.486       .  S
N56          C57   1.357       .  A
C57          N58   1.357       .  A
C57         C137   1.462       .  S
N58          C59   1.360       .  A
C59          N60   1.360       .  A
C59          C82   1.463       .  S
C61          N62   1.359       .  A
C61          N66   1.357       .  A
C61         C208   1.491       .  S
N62          C63   1.363       .  A
C63          N64   1.360       .  A
C63         C103   1.467       .  S
N64          C65   1.359       .  A
C65          N66   1.358       .  A
C65         C207   1.466       .  S
C67          N68   1.360       .  A
C67          N72   1.356       .  A
C67         C219   1.491       .  S
N68          C69   1.363       .  A
C69          N70   1.359       .  A
C69         C193   1.466       .  S
N70          C71   1.357       .  A
C71          N72   1.357       .  A
C71         C117   1.462       .  S
N73          N74   1.318       .  A
N73          N79   1.316       .  A
N73        Mn102   2.188       .  S
N74          C81   1.349       .  A
N75          N77   1.317       .  A
N75          N76   1.322       .  A
N75        Mn442   2.209       .  S
N76          C82   1.353       .  A
N77          N78   1.318       .  A
N77        Mn102   2.195       .  S
N78          C82   1.350       .  A
N79          N80   1.324       .  A
N79        Mn442   2.220       .  S
N80          C81   1.356       .  A
N83          N89   1.315       .  A
N83          N84   1.316       .  A
N83        Mn113   2.178       .  S
N84          C92   1.347       .  A
N85          N86   1.325       .  A
N85          N87   1.316       .  A
N85         Mn91   2.219       .  S
N86          C93   1.356       .  A
N87          N88   1.314       .  A
N87        Mn113   2.180       .  S
N88          C93   1.347       .  A
N89          N90   1.326       .  A
N89         Mn91   2.226       .  S
N90          C92   1.358       .  A
Mn91        N426   2.219   1_554  S
Mn91        N430   2.219   1_554  S
Mn91       Cl115   2.557       .  S
N94          N95   1.317       .  A
N94         N100   1.316       .  A
N94        Mn102   2.187       .  S
N95         C103   1.348       .  A
N96          N98   1.316       .  A
N96          N97   1.324       .  A
N96        Mn465   2.212       .  S
N97         C104   1.354       .  A
N98          N99   1.317       .  A
N98        Mn102   2.196       .  S
N99         C104   1.350       .  A
N100        N101   1.325       .  A
N100       Mn465   2.225       .  S
N101        C103   1.357       .  A
Mn102      Cl466   2.544       .  S
N105        N106   1.317       .  A
N105        N111   1.315       .  A
N105       Mn113   2.179       .  S
N106        C116   1.347       .  A
N107        N108   1.325       .  A
N107        N109   1.316       .  A
N107       Mn114   2.221       .  S
N108        C117   1.357       .  A
N109        N110   1.315       .  A
N109       Mn113   2.179       .  S
N110        C117   1.347       .  A
N111        N112   1.325       .  A
N111       Mn114   2.223       .  S
N112        C116   1.357       .  A
Mn113      Cl115   2.538       .  S
Mn114       N447   2.213   1_554  S
Mn114       N451   2.226   1_554  S
Mn114      Cl115   2.557       .  S
Cl115      Mn453   2.541   1_554  S
N118        N119   1.317       .  A
N118        N124   1.316       .  A
N118      Mn1551   2.184   1_455  S
N119        C126   1.348       .  A
N120        N122   1.316       .  A
N120        N121   1.323       .  A
N120       Mn136   2.212       .  S
N121        C127   1.354       .  A
N122        N123   1.317       .  A
N122       Mn147   2.194       .  S
N123        C127   1.350       .  A
N124        N125   1.324       .  A
N124      Mn1540   2.220   1_455  S
N125        C126   1.356       .  A
N128        N134   1.315       .  A
N128        N129   1.315       .  A
N128       Mn158   2.178       .  S
N129        C137   1.346       .  A
N130        N131   1.325       .  A
N130        N132   1.316       .  A
N130      Mn1891   2.219   1_455  S
N131        C138   1.356       .  A
N132        N133   1.315       .  A
N132      Mn1562   2.183   1_455  S
N133        C138   1.347       .  A
N134        N135   1.325       .  A
N134       Mn487   2.217       .  S
N135        C137   1.356       .  A
Mn136      N1528   2.226       .  S
Mn136      N1885   2.211   1_554  S
Mn136       N485   2.228   1_554  S
Mn136      Cl160   2.556       .  S
N139        N140   1.317       .  A
N139        N145   1.316       .  A
N139       Mn147   2.182       .  S
N140        C148   1.348       .  A
N141        N143   1.316       .  A
N141        N142   1.324       .  A
N141      Mn1563   2.215   1_455  S
N142        C149   1.355       .  A
N143        N144   1.316       .  A
N143      Mn1551   2.187   1_455  S
N144        C149   1.348       .  A
N145        N146   1.324       .  A
N145       Mn159   2.222       .  S
N146        C148   1.356       .  A
Mn147      N1522   2.181       .  S
Mn147      N1547   2.196       .  S
Mn147      Cl160   2.542       .  S
N150        N151   1.318       .  A
N150        N156   1.316       .  A
N150      Mn1562   2.189   1_455  S
N151        C161   1.349       .  A
N152        N153   1.324       .  A
N152        N154   1.316       .  A
N152       Mn510   2.207       .  S
N153        C162   1.354       .  A
N154        N155   1.316       .  A
N154       Mn158   2.192       .  S
N155        C162   1.350       .  A
N156        N157   1.326       .  A
N156      Mn1914   2.228   1_455  S
N157        C161   1.357       .  A
Mn158      N1536   2.190       .  S
Mn158      N1554   2.184       .  S
Mn158      Cl511   2.539       .  S
Mn159      N1545   2.208       .  S
Mn159       N503   2.210   1_554  S
Mn159      N1911   2.224   1_554  S
Mn159      Cl160   2.555       .  S
Cl160      Mn509   2.539   1_554  S
N163        N164   1.319       .  A
N163        N169   1.316       .  A
N163       Mn192   2.190       .  S
N164        C171   1.350       .  A
N165        N167   1.316       .  A
N165        N166   1.324       .  A
N165       Mn883   2.215   1_545  S
N166        C172   1.355       .  A
N167        N168   1.317       .  A
N167       Mn894   2.187   1_545  S
N168        C172   1.349       .  A
N169        N170   1.323       .  A
N169       Mn181   2.219       .  S
N170        C171   1.355       .  A
N173        N179   1.316       .  A
N173        N174   1.318       .  A
N173       Mn905   2.189   1_545  S
N174        C182   1.348       .  A
N175        N176   1.324       .  A
N175        N177   1.316       .  A
N175       Mn532   2.212       .  S
N176        C183   1.355       .  A
N177        N178   1.315       .  A
N177       Mn203   2.183       .  S
N178        C183   1.348       .  A
N179        N180   1.326       .  A
N179      Mn1234   2.228   1_545  S
N180        C182   1.358       .  A
Mn181       N867   2.218       .  S
Mn181       N526   2.217   1_554  S
Mn181      N1232   2.219   1_554  S
Mn181      Cl205   2.556       .  S
N184        N185   1.317       .  A
N184        N190   1.316       .  A
N184       Mn894   2.183   1_545  S
N185        C193   1.347       .  A
N186        N188   1.316       .  A
N186        N187   1.325       .  A
N186       Mn204   2.218       .  S
N187        C194   1.356       .  A
N188        N189   1.314       .  A
N188       Mn192   2.178       .  S
N189        C194   1.346       .  A
N190        N191   1.325       .  A
N190       Mn906   2.224   1_545  S
N191        C193   1.357       .  A
Mn192       N869   2.182       .  S
Mn192       N886   2.185       .  S
Mn192      Cl205   2.540       .  S
N195        N196   1.319       .  A
N195        N201   1.316       .  A
N195       Mn203   2.189       .  S
N196        C206   1.349       .  A
N197        N198   1.325       .  A
N197        N199   1.316       .  A
N197      Mn1257   2.222   1_545  S
N198        C207   1.356       .  A
N199        N200   1.316       .  A
N199       Mn905   2.185   1_545  S
N200        C207   1.348       .  A
N201        N202   1.324       .  A
N201       Mn555   2.221       .  S
N202        C206   1.356       .  A
Mn203       N875   2.185       .  S
Mn203       N901   2.185       .  S
Mn203      Cl556   2.542       .  S
Mn204       N892   2.228       .  S
Mn204      N1250   2.218   1_554  S
Mn204       N552   2.232   1_554  S
Mn204      Cl205   2.557       .  S
Cl205      Mn554   2.540   1_554  S
C208        C209   1.407       .  A
C208        C213   1.408       .  A
C209        C210   1.398       .  A
C209        H222   1.083       .  S
C210        C211   1.404       .  A
C210        H223   1.084       .  S
C211        C212   1.411       .  A
C211        C214   1.495       .  S
C212        C213   1.404       .  A
C212        H224   1.081       .  S
C213        H225   1.083       .  S
C214        C215   1.351       .  D
C214        H226   1.082       .  S
C215        C216   1.499       .  S
C215        H227   1.084       .  S
C216        C217   1.405       .  A
C216        C221   1.412       .  A
C217        C218   1.399       .  A
C217        H228   1.084       .  S
C218        C219   1.407       .  A
C218        H229   1.083       .  S
C219        C220   1.406       .  A
C220        C221   1.403       .  A
C220        H230   1.083       .  S
C221        H231   1.079       .  S
C232        C233   1.407       .  A
C232        C237   1.405       .  A
C233        C234   1.397       .  A
C233        H246   1.083       .  S
C234        C235   1.404       .  A
C234        H247   1.083       .  S
C235        C236   1.411       .  A
C235        C238   1.493       .  S
C236        C237   1.400       .  A
C236        H248   1.080       .  S
C237        H249   1.083       .  S
C238        C239   1.351       .  D
C238        H250   1.082       .  S
C239        C240   1.496       .  S
C239        H251   1.083       .  S
C240        C241   1.406       .  A
C240        C245   1.411       .  A
C241        C242   1.399       .  A
C241        H252   1.083       .  S
C242        C243   1.405       .  A
C242        H253   1.083       .  S
C243        C244   1.406       .  A
C244        C245   1.400       .  A
C244        H254   1.083       .  S
C245        H255   1.079       .  S
C256        C257   1.408       .  A
C256        C261   1.404       .  A
C257        C258   1.397       .  A
C257        H270   1.083       .  S
C258        C259   1.403       .  A
C258        H271   1.084       .  S
C259        C260   1.413       .  A
C259        C262   1.495       .  S
C260        C261   1.402       .  A
C260        H272   1.079       .  S
C261        H273   1.083       .  S
C262        C263   1.348       .  D
C262        H274   1.084       .  S
C263        C264   1.491       .  S
C263        H275   1.082       .  S
C264        C265   1.403       .  A
C264        C269   1.411       .  A
C265        C266   1.396       .  A
C265        H276   1.084       .  S
C266        C267   1.405       .  A
C266        H277   1.083       .  S
C267        C268   1.407       .  A
C268        C269   1.403       .  A
C268        H278   1.083       .  S
C269        H279   1.081       .  S
C280        C281   1.406       .  A
C280        C285   1.406       .  A
C281        C282   1.397       .  A
C281        H294   1.083       .  S
C282        C283   1.403       .  A
C282        H295   1.083       .  S
C283        C284   1.411       .  A
C283        C286   1.494       .  S
C284        C285   1.403       .  A
C284        H296   1.081       .  S
C285        H297   1.083       .  S
C286        C287   1.349       .  D
C286        H298   1.082       .  S
C287        C288   1.496       .  S
C287        H299   1.084       .  S
C288        C289   1.404       .  A
C288        C293   1.412       .  A
C289        C290   1.397       .  A
C289        H300   1.083       .  S
C290        C291   1.407       .  A
C290        H301   1.083       .  S
C291        C292   1.405       .  A
C292        C293   1.403       .  A
C292        H302   1.083       .  S
C293        H303   1.079       .  S
C304        C305   1.407       .  A
C304        C309   1.405       .  A
C305        C306   1.399       .  A
C305        H318   1.083       .  S
C306        C307   1.405       .  A
C306        H319   1.084       .  S
C307        C308   1.412       .  A
C307        C310   1.499       .  S
C308        C309   1.403       .  A
C308        H320   1.079       .  S
C309        H321   1.083       .  S
C310        C311   1.350       .  D
C310        H322   1.085       .  S
C311        C312   1.495       .  S
C311        H323   1.082       .  S
C312        C313   1.403       .  A
C312        C317   1.411       .  A
C313        C314   1.398       .  A
C313        H324   1.084       .  S
C314        C315   1.407       .  A
C314        H325   1.083       .  S
C315        C316   1.407       .  A
C316        C317   1.405       .  A
C316        H326   1.083       .  S
C317        H327   1.081       .  S
C328        C329   1.407       .  A
C328        C333   1.405       .  A
C329        C330   1.396       .  A
C329        H342   1.083       .  S
C330        C331   1.403       .  A
C330        H343   1.084       .  S
C331        C332   1.412       .  A
C331        C334   1.493       .  S
C332        C333   1.403       .  A
C332        H344   1.080       .  S
C333        H345   1.083       .  S
C334        C335   1.349       .  D
C334        H346   1.082       .  S
C335        C336   1.495       .  S
C335        H347   1.084       .  S
C336        C337   1.403       .  A
C336        C341   1.413       .  A
C337        C338   1.396       .  A
C337        H348   1.084       .  S
C338        C339   1.407       .  A
C338        H349   1.083       .  S
C339        C340   1.405       .  A
C340        C341   1.402       .  A
C340        H350   1.083       .  S
C341        H351   1.079       .  S
C352        N353   1.354       .  A
C352        N357   1.363       .  A
C352        C679   1.491       .  S
N353        C354   1.353       .  A
C354        N355   1.358       .  A
C354        C444   1.463       .  S
N355        C356   1.361       .  A
C356        N357   1.366       .  A
C356        C522   1.471       .  S
C358        N359   1.360       .  A
C358        N363   1.355       .  A
C358        C690   1.490       .  S
N359        C360   1.364       .  A
C360        N361   1.362       .  A
C360        C432   1.469       .  S
N361        C362   1.359       .  A
C362        N363   1.355       .  A
C362        C534   1.465       .  S
C364        N365   1.356       .  A
C364        N369   1.361       .  A
C364        C666   1.493       .  S
N365        C366   1.356       .  A
C366        N367   1.360       .  A
C366        C489   1.467       .  S
N367        C368   1.362       .  A
C368        N369   1.365       .  A
C368        C557   1.472       .  S
C370        N371   1.357       .  A
C370        N375   1.361       .  A
C370        C655   1.493       .  S
N371        C372   1.356       .  A
C372        N373   1.358       .  A
C372        C545   1.467       .  S
N373        C374   1.361       .  A
C374        N375   1.365       .  A
C374        C477   1.470       .  S
C376        N377   1.361       .  A
C376        N381   1.356       .  A
C376        C631   1.491       .  S
N377        C378   1.365       .  A
C378        N379   1.361       .  A
C378        C467   1.470       .  S
N379        C380   1.359       .  A
C380        N381   1.355       .  A
C380        C500   1.465       .  S
C382        N383   1.360       .  A
C382        N387   1.354       .  A
C382        C642   1.489       .  S
N383        C384   1.364       .  A
C384        N385   1.360       .  A
C384        C512   1.466       .  S
N385        C386   1.357       .  A
C386        N387   1.355       .  A
C386        C455   1.460       .  S
C388        N389   1.354       .  A
C388        N393   1.360       .  A
C388        C607   1.486       .  S
N389        C390   1.354       .  A
C390        N391   1.357       .  A
C390        C513   1.460       .  S
N391        C392   1.360       .  A
C392        N393   1.364       .  A
C392        C533   1.465       .  S
C394        N395   1.359       .  A
C394        N399   1.356       .  A
C394        C618   1.488       .  S
N395        C396   1.362       .  A
C396        N397   1.360       .  A
C396        C499   1.467       .  S
N397        C398   1.359       .  A
C398        N399   1.356       .  A
C398        C523   1.464       .  S
C400        N401   1.359       .  A
C400        N405   1.358       .  A
C400        C594   1.491       .  S
N401        C402   1.361       .  A
C402        N403   1.360       .  A
C402        C478   1.465       .  S
N403        C404   1.358       .  A
C404        N405   1.359       .  A
C404        C443   1.468       .  S
C406        N407   1.358       .  A
C406        N411   1.359       .  A
C406        C583   1.491       .  S
N407        C408   1.359       .  A
C408        N409   1.358       .  A
C408        C488   1.467       .  S
N409        C410   1.360       .  A
C410        N411   1.361       .  A
C410        C433   1.465       .  S
C412        N413   1.361       .  A
C412        N417   1.358       .  A
C412        C559   1.493       .  S
N413        C414   1.364       .  A
C414        N415   1.360       .  A
C414        C454   1.470       .  S
N415        C416   1.358       .  A
C416        N417   1.358       .  A
C416        C558   1.467       .  S
C418        N419   1.360       .  A
C418        N423   1.356       .  A
C418        C570   1.491       .  S
N419        C420   1.363       .  A
C420        N421   1.361       .  A
C420        C544   1.468       .  S
N421        C422   1.359       .  A
C422        N423   1.357       .  A
C422        C468   1.464       .  S
N424        N425   1.319       .  A
N424        N430   1.316       .  A
N424       Mn453   2.192       .  S
N425        C432   1.350       .  A
N426        N428   1.317       .  A
N426        N427   1.323       .  A
N427        C433   1.355       .  A
N428        N429   1.318       .  A
N428       Mn453   2.189       .  S
N429        C433   1.349       .  A
N430        N431   1.324       .  A
N431        C432   1.356       .  A
N434        N440   1.316       .  A
N434        N435   1.316       .  A
N434       Mn464   2.181       .  S
N435        C443   1.347       .  A
N436        N437   1.325       .  A
N436        N438   1.316       .  A
N436       Mn442   2.213       .  S
N437        C444   1.355       .  A
N438        N439   1.315       .  A
N438       Mn464   2.187       .  S
N439        C444   1.348       .  A
N440        N441   1.326       .  A
N440       Mn442   2.227       .  S
N441        C443   1.358       .  A
Mn442      Cl466   2.556       .  S
N445        N446   1.318       .  A
N445        N451   1.316       .  A
N445       Mn453   2.190       .  S
N446        C454   1.349       .  A
N447        N449   1.316       .  A
N447        N448   1.324       .  A
N448        C455   1.355       .  A
N449        N450   1.315       .  A
N449       Mn453   2.184       .  S
N450        C455   1.347       .  A
N451        N452   1.325       .  A
N452        C454   1.357       .  A
N456        N457   1.318       .  A
N456        N462   1.316       .  A
N456       Mn464   2.185       .  S
N457        C467   1.348       .  A
N458        N459   1.325       .  A
N458        N460   1.316       .  A
N458       Mn465   2.215       .  S
N459        C468   1.356       .  A
N460        N461   1.316       .  A
N460       Mn464   2.187       .  S
N461        C468   1.348       .  A
N462        N463   1.325       .  A
N462       Mn465   2.228       .  S
N463        C467   1.357       .  A
Mn464      Cl466   2.539       .  S
Mn465      Cl466   2.556       .  S
N469        N470   1.319       .  A
N469        N475   1.316       .  A
N469      Mn1902   2.188   1_455  S
N470        C477   1.349       .  A
N471        N473   1.316       .  A
N471        N472   1.323       .  A
N471       Mn487   2.214       .  S
N472        C478   1.355       .  A
N473        N474   1.318       .  A
N473       Mn498   2.193       .  S
N474        C478   1.350       .  A
N475        N476   1.325       .  A
N475      Mn1891   2.227   1_455  S
N476        C477   1.357       .  A
N479        N485   1.316       .  A
N479        N480   1.316       .  A
N479       Mn509   2.182       .  S
N480        C488   1.347       .  A
N481        N482   1.326       .  A
N481        N483   1.316       .  A
N481      Mn1540   2.223   1_456  S
N482        C489   1.357       .  A
N483        N484   1.316       .  A
N483      Mn1913   2.188   1_455  S
N484        C489   1.349       .  A
N485        N486   1.326       .  A
N486        C488   1.358       .  A
Mn487      N1879   2.214       .  S
Mn487      N1534   2.217       .  S
Mn487      Cl511   2.555       .  S
N490        N491   1.317       .  A
N490        N496   1.316       .  A
N490       Mn498   2.186       .  S
N491        C499   1.348       .  A
N492        N494   1.317       .  A
N492        N493   1.324       .  A
N492      Mn1914   2.216   1_455  S
N493        C500   1.355       .  A
N494        N495   1.317       .  A
N494      Mn1902   2.195   1_455  S
N495        C500   1.350       .  A
N496        N497   1.325       .  A
N496       Mn510   2.224       .  S
N497        C499   1.357       .  A
Mn498      N1873   2.187       .  S
Mn498      N1898   2.190       .  S
Mn498      Cl511   2.542       .  S
N501        N502   1.318       .  A
N501        N507   1.315       .  A
N501      Mn1913   2.182   1_455  S
N502        C512   1.348       .  A
N503        N504   1.324       .  A
N503        N505   1.316       .  A
N504        C513   1.355       .  A
N505        N506   1.315       .  A
N505       Mn509   2.184       .  S
N506        C513   1.348       .  A
N507        N508   1.324       .  A
N507      Mn1563   2.221   1_456  S
N508        C512   1.356       .  A
Mn509      N1887   2.186       .  S
Mn509      N1905   2.192       .  S
Mn510      N1896   2.207       .  S
Mn510      N1560   2.227       .  S
Mn510      Cl511   2.555       .  S
N514        N515   1.320       .  A
N514        N520   1.316       .  A
N514       Mn543   2.192       .  S
N515        C522   1.350       .  A
N516        N518   1.316       .  A
N516        N517   1.324       .  A
N516      Mn1234   2.215   1_545  S
N517        C523   1.355       .  A
N518        N519   1.317       .  A
N518      Mn1245   2.191   1_545  S
N519        C523   1.349       .  A
N520        N521   1.324       .  A
N520       Mn532   2.226       .  S
N521        C522   1.356       .  A
N524        N530   1.316       .  A
N524        N525   1.318       .  A
N524      Mn1256   2.186   1_545  S
N525        C533   1.348       .  A
N526        N527   1.325       .  A
N526        N528   1.316       .  A
N527        C534   1.356       .  A
N528        N529   1.316       .  A
N528       Mn554   2.190       .  S
N529        C534   1.349       .  A
N530        N531   1.323       .  A
N530       Mn883   2.218   1_546  S
N531        C533   1.355       .  A
Mn532      N1218   2.216       .  S
Mn532       N881   2.229       .  S
Mn532      Cl556   2.556       .  S
N535        N536   1.317       .  A
N535        N541   1.316       .  A
N535      Mn1245   2.186   1_545  S
N536        C544   1.348       .  A
N537        N539   1.317       .  A
N537        N538   1.326       .  A
N537       Mn555   2.226       .  S
N538        C545   1.357       .  A
N539        N540   1.316       .  A
N539       Mn543   2.187       .  S
N540        C545   1.348       .  A
N541        N542   1.325       .  A
N541      Mn1257   2.222   1_545  S
N542        C544   1.357       .  A
Mn543      N1220   2.189       .  S
Mn543      N1237   2.185       .  S
Mn543      Cl556   2.542       .  S
N546        N547   1.318       .  A
N546        N552   1.316       .  A
N546       Mn554   2.188       .  S
N547        C557   1.348       .  A
N548        N549   1.325       .  A
N548        N550   1.317       .  A
N548       Mn906   2.224   1_546  S
N549        C558   1.356       .  A
N550        N551   1.317       .  A
N550      Mn1256   2.190   1_545  S
N551        C558   1.348       .  A
N552        N553   1.326       .  A
N553        C557   1.358       .  A
Mn554      N1226   2.183       .  S
Mn554      N1252   2.191       .  S
Mn555      N1243   2.218       .  S
Mn555       N899   2.229       .  S
Mn555      Cl556   2.558       .  S
C559        C560   1.407       .  A
C559        C564   1.408       .  A
C560        C561   1.398       .  A
C560        H573   1.083       .  S
C561        C562   1.404       .  A
C561        H574   1.083       .  S
C562        C563   1.412       .  A
C562        C565   1.498       .  S
C563        C564   1.406       .  A
C563        H575   1.080       .  S
C564        H576   1.083       .  S
C565        C566   1.351       .  D
C565        H577   1.083       .  S
C566        C567   1.499       .  S
C566        H578   1.084       .  S
C567        C568   1.404       .  A
C567        C572   1.412       .  A
C568        C569   1.400       .  A
C568        H579   1.083       .  S
C569        C570   1.408       .  A
C569        H580   1.083       .  S
C570        C571   1.406       .  A
C571        C572   1.403       .  A
C571        H581   1.083       .  S
C572        H582   1.080       .  S
C583        C584   1.407       .  A
C583        C588   1.407       .  A
C584        C585   1.399       .  A
C584        H597   1.083       .  S
C585        C586   1.405       .  A
C585        H598   1.083       .  S
C586        C587   1.412       .  A
C586        C589   1.499       .  S
C587        C588   1.403       .  A
C587        H599   1.079       .  S
C588        H600   1.083       .  S
C589        C590   1.351       .  D
C589        H601   1.083       .  S
C590        C591   1.496       .  S
C590        H602   1.082       .  S
C591        C592   1.405       .  A
C591        C596   1.411       .  A
C592        C593   1.398       .  A
C592        H603   1.083       .  S
C593        C594   1.406       .  A
C593        H604   1.083       .  S
C594        C595   1.408       .  A
C595        C596   1.404       .  A
C595        H605   1.083       .  S
C596        H606   1.080       .  S
C607        C608   1.407       .  A
C607        C612   1.405       .  A
C608        C609   1.396       .  A
C608        H621   1.083       .  S
C609        C610   1.403       .  A
C609        H622   1.084       .  S
C610        C611   1.412       .  A
C610        C613   1.493       .  S
C611        C612   1.403       .  A
C611        H623   1.080       .  S
C612        H624   1.083       .  S
C613        C614   1.348       .  D
C613        H625   1.083       .  S
C614        C615   1.495       .  S
C614        H626   1.084       .  S
C615        C616   1.404       .  A
C615        C620   1.412       .  A
C616        C617   1.396       .  A
C616        H627   1.084       .  S
C617        C618   1.406       .  A
C617        H628   1.083       .  S
C618        C619   1.406       .  A
C619        C620   1.403       .  A
C619        H629   1.083       .  S
C620        H630   1.079       .  S
C631        C632   1.407       .  A
C631        C636   1.408       .  A
C632        C633   1.396       .  A
C632        H645   1.083       .  S
C633        C634   1.402       .  A
C633        H646   1.083       .  S
C634        C635   1.411       .  A
C634        C637   1.493       .  S
C635        C636   1.406       .  A
C635        H647   1.081       .  S
C636        H648   1.083       .  S
C637        C638   1.348       .  D
C637        H649   1.085       .  S
C638        C639   1.492       .  S
C638        H650   1.084       .  S
C639        C640   1.402       .  A
C639        C644   1.411       .  A
C640        C641   1.397       .  A
C640        H651   1.083       .  S
C641        C642   1.408       .  A
C641        H652   1.083       .  S
C642        C643   1.406       .  A
C643        C644   1.403       .  A
C643        H653   1.083       .  S
C644        H654   1.081       .  S
C655        C656   1.408       .  A
C655        C660   1.408       .  A
C656        C657   1.397       .  A
C656        H669   1.083       .  S
C657        C658   1.402       .  A
C657        H670   1.084       .  S
C658        C659   1.411       .  A
C658        C661   1.495       .  S
C659        C660   1.407       .  A
C659        H671   1.081       .  S
C660        H672   1.083       .  S
C661        C662   1.349       .  D
C661        H673   1.084       .  S
C662        C663   1.496       .  S
C662        H674   1.085       .  S
C663        C664   1.403       .  A
C663        C668   1.412       .  A
C664        C665   1.399       .  A
C664        H675   1.084       .  S
C665        C666   1.409       .  A
C665        H676   1.083       .  S
C666        C667   1.407       .  A
C667        C668   1.405       .  A
C667        H677   1.083       .  S
C668        H678   1.081       .  S
C679        C680   1.408       .  A
C679        C684   1.406       .  A
C680        C681   1.396       .  A
C680        H693   1.083       .  S
C681        C682   1.402       .  A
C681        H694   1.084       .  S
C682        C683   1.413       .  A
C682        C685   1.495       .  S
C683        C684   1.405       .  A
C683        H695   1.080       .  S
C684        H696   1.083       .  S
C685        C686   1.348       .  D
C685        H697   1.085       .  S
C686        C687   1.493       .  S
C686        H698   1.084       .  S
C687        C688   1.402       .  A
C687        C692   1.411       .  A
C688        C689   1.396       .  A
C688        H699   1.084       .  S
C689        C690   1.408       .  A
C689        H700   1.082       .  S
C690        C691   1.407       .  A
C691        C692   1.405       .  A
C691        H701   1.083       .  S
C692        H702   1.081       .  S
C703        N704   1.356       .  A
C703        N708   1.360       .  A
C703       C1030   1.487       .  S
N704        C705   1.357       .  A
C705        N706   1.359       .  A
C705        C795   1.465       .  S
N706        C707   1.361       .  A
C707        N708   1.362       .  A
C707        C873   1.469       .  S
C709        N710   1.360       .  A
C709        N714   1.354       .  A
C709       C1041   1.486       .  S
N710        C711   1.363       .  A
C711        N712   1.360       .  A
C711        C783   1.465       .  S
N712        C713   1.357       .  A
C713        N714   1.355       .  A
C713        C885   1.460       .  S
C715        N716   1.356       .  A
C715        N720   1.360       .  A
C715       C1017   1.489       .  S
N716        C717   1.356       .  A
C717        N718   1.359       .  A
C717        C840   1.466       .  S
N718        C719   1.362       .  A
C719        N720   1.363       .  A
C719        C908   1.469       .  S
C721        N722   1.354       .  A
C721        N726   1.360       .  A
C721       C1006   1.489       .  S
N722        C723   1.355       .  A
C723        N724   1.358       .  A
C723        C896   1.462       .  S
N724        C725   1.361       .  A
C725        N726   1.364       .  A
C725        C828   1.467       .  S
C727        N728   1.359       .  A
C727        N732   1.355       .  A
C727        C982   1.490       .  S
N728        C729   1.364       .  A
C729        N730   1.361       .  A
C729        C818   1.468       .  S
N730        C731   1.359       .  A
C731        N732   1.356       .  A
C731        C851   1.463       .  S
C733        N734   1.362       .  A
C733        N738   1.357       .  A
C733        C993   1.494       .  S
N734        C735   1.366       .  A
C735        N736   1.362       .  A
C735        C863   1.474       .  S
N736        C737   1.359       .  A
C737        N738   1.357       .  A
C737        C806   1.469       .  S
C739        N740   1.356       .  A
C739        N744   1.361       .  A
C739        C958   1.490       .  S
N740        C741   1.356       .  A
C741        N742   1.359       .  A
C741        C864   1.465       .  S
N742        C743   1.361       .  A
C743        N744   1.364       .  A
C743        C884   1.470       .  S
C745        N746   1.358       .  A
C745        N750   1.356       .  A
C745        C969   1.488       .  S
N746        C747   1.362       .  A
C747        N748   1.360       .  A
C747        C850   1.464       .  S
N748        C749   1.358       .  A
C749        N750   1.357       .  A
C749        C874   1.463       .  S
C751        N752   1.358       .  A
C751        N756   1.356       .  A
C751        C945   1.488       .  S
N752        C753   1.361       .  A
C753        N754   1.361       .  A
C753        C829   1.464       .  S
N754        C755   1.358       .  A
C755        N756   1.358       .  A
C755        C794   1.466       .  S
C757        N758   1.358       .  A
C757        N762   1.358       .  A
C757        C934   1.488       .  S
N758        C759   1.360       .  A
C759        N760   1.358       .  A
C759        C839   1.466       .  S
N760        C761   1.359       .  A
C761        N762   1.360       .  A
C761        C784   1.464       .  S
C763        N764   1.360       .  A
C763        N768   1.357       .  A
C763        C910   1.493       .  S
N764        C765   1.363       .  A
C765        N766   1.362       .  A
C765        C805   1.472       .  S
N766        C767   1.360       .  A
C767        N768   1.359       .  A
C767        C909   1.470       .  S
C769        N770   1.360       .  A
C769        N774   1.358       .  A
C769        C921   1.493       .  S
N770        C771   1.363       .  A
C771        N772   1.359       .  A
C771        C895   1.468       .  S
N772        C773   1.359       .  A
C773        N774   1.360       .  A
C773        C819   1.467       .  S
N775        N776   1.318       .  A
N775        N781   1.316       .  A
N775       Mn804   2.187       .  S
N776        C783   1.348       .  A
N777        N779   1.317       .  A
N777        N778   1.323       .  A
N777      Mn1144   2.215       .  S
N778        C784   1.354       .  A
N779        N780   1.318       .  A
N779       Mn804   2.193       .  S
N780        C784   1.349       .  A
N781        N782   1.323       .  A
N781      Mn1144   2.218       .  S
N782        C783   1.355       .  A
N785        N791   1.315       .  A
N785        N786   1.315       .  A
N785       Mn815   2.176       .  S
N786        C794   1.346       .  A
N787        N788   1.325       .  A
N787        N789   1.316       .  A
N787       Mn793   2.219       .  S
N788        C795   1.356       .  A
N789        N790   1.316       .  A
N789       Mn815   2.185       .  S
N790        C795   1.348       .  A
N791        N792   1.326       .  A
N791       Mn793   2.226       .  S
N792        C794   1.358       .  A
Mn793      N1128   2.214   1_554  S
Mn793      N1132   2.221   1_554  S
Mn793      Cl817   2.557       .  S
N796        N797   1.318       .  A
N796        N802   1.316       .  A
N796       Mn804   2.190       .  S
N797        C805   1.349       .  A
N798        N800   1.317       .  A
N798        N799   1.326       .  A
N798      Mn1167   2.224       .  S
N799        C806   1.357       .  A
N800        N801   1.317       .  A
N800       Mn804   2.192       .  S
N801        C806   1.349       .  A
N802        N803   1.326       .  A
N802      Mn1167   2.231       .  S
N803        C805   1.358       .  A
Mn804     Cl1168   2.544       .  S
N807        N808   1.316       .  A
N807        N813   1.315       .  A
N807       Mn815   2.179       .  S
N808        C818   1.347       .  A
N809        N810   1.325       .  A
N809        N811   1.316       .  A
N809       Mn816   2.222       .  S
N810        C819   1.357       .  A
N811        N812   1.316       .  A
N811       Mn815   2.183       .  S
N812        C819   1.347       .  A
N813        N814   1.326       .  A
N813       Mn816   2.227       .  S
N814        C818   1.358       .  A
Mn815      Cl817   2.538       .  S
Mn816      N1149   2.211   1_554  S
Mn816      N1153   2.227   1_554  S
Mn816      Cl817   2.557       .  S
Cl817     Mn1155   2.546   1_554  S
N820        N821   1.318       .  A
N820        N826   1.316       .  A
N820      Mn2253   2.188   1_455  S
N821        C828   1.349       .  A
N822        N824   1.316       .  A
N822        N823   1.323       .  A
N822       Mn838   2.210       .  S
N823        C829   1.354       .  A
N824        N825   1.318       .  A
N824       Mn849   2.195       .  S
N825        C829   1.350       .  A
N826        N827   1.324       .  A
N826      Mn2242   2.220   1_455  S
N827        C828   1.356       .  A
N830        N836   1.316       .  A
N830        N831   1.316       .  A
N830       Mn860   2.179       .  S
N831        C839   1.347       .  A
N832        N833   1.325       .  A
N832        N834   1.317       .  A
N832      Mn2593   2.221   1_455  S
N833        C840   1.356       .  A
N834        N835   1.316       .  A
N834      Mn2264   2.189   1_455  S
N835        C840   1.348       .  A
N836        N837   1.325       .  A
N836      Mn1189   2.224       .  S
N837        C839   1.357       .  A
Mn838      N2230   2.218       .  S
Mn838      N2587   2.213   1_554  S
Mn838      N1187   2.221   1_554  S
Mn838      Cl862   2.555       .  S
N841        N842   1.316       .  A
N841        N847   1.316       .  A
N841       Mn849   2.183       .  S
N842        C850   1.347       .  A
N843        N845   1.316       .  A
N843        N844   1.325       .  A
N843      Mn2265   2.214   1_455  S
N844        C851   1.355       .  A
N845        N846   1.315       .  A
N845      Mn2253   2.187   1_455  S
N846        C851   1.348       .  A
N847        N848   1.324       .  A
N847       Mn861   2.221       .  S
N848        C850   1.356       .  A
Mn849      N2224   2.185       .  S
Mn849      N2249   2.191       .  S
Mn849      Cl862   2.540       .  S
N852        N853   1.319       .  A
N852        N858   1.316       .  A
N852      Mn2264   2.188   1_455  S
N853        C863   1.349       .  A
N854        N855   1.325       .  A
N854        N856   1.316       .  A
N854      Mn1212   2.219       .  S
N855        C864   1.356       .  A
N856        N857   1.316       .  A
N856       Mn860   2.187       .  S
N857        C864   1.348       .  A
N858        N859   1.326       .  A
N858      Mn2616   2.232   1_455  S
N859        C863   1.358       .  A
Mn860      N2238   2.185       .  S
Mn860      N2256   2.184       .  S
Mn860     Cl1213   2.540       .  S
Mn861      N2247   2.205       .  S
Mn861      N1205   2.209   1_554  S
Mn861      N2613   2.224   1_554  S
Mn861      Cl862   2.555       .  S
Cl862     Mn1211   2.537   1_554  S
N865        N866   1.319       .  A
N865        N871   1.315       .  A
N865       Mn894   2.190       .  S
N866        C873   1.350       .  A
N867        N869   1.316       .  A
N867        N868   1.325       .  A
N868        C874   1.356       .  A
N869        N870   1.316       .  A
N870        C874   1.348       .  A
N871        N872   1.324       .  A
N871       Mn883   2.219       .  S
N872        C873   1.356       .  A
N875        N881   1.316       .  A
N875        N876   1.318       .  A
N876        C884   1.348       .  A
N877        N878   1.324       .  A
N877        N879   1.316       .  A
N877      Mn1234   2.213       .  S
N878        C885   1.355       .  A
N879        N880   1.315       .  A
N879       Mn905   2.182       .  S
N880        C885   1.347       .  A
N881        N882   1.326       .  A
N882        C884   1.358       .  A
Mn883      N1228   2.211   1_554  S
Mn883      Cl907   2.556       .  S
N886        N887   1.317       .  A
N886        N892   1.316       .  A
N887        C895   1.348       .  A
N888        N890   1.316       .  A
N888        N889   1.325       .  A
N888       Mn906   2.221       .  S
N889        C896   1.356       .  A
N890        N891   1.314       .  A
N890       Mn894   2.181       .  S
N891        C896   1.347       .  A
N892        N893   1.325       .  A
N893        C895   1.358       .  A
Mn894      Cl907   2.542       .  S
N897        N898   1.319       .  A
N897        N903   1.316       .  A
N897       Mn905   2.193       .  S
N898        C908   1.350       .  A
N899        N900   1.326       .  A
N899        N901   1.316       .  A
N900        C909   1.358       .  A
N901        N902   1.316       .  A
N902        C909   1.348       .  A
N903        N904   1.324       .  A
N903      Mn1257   2.220       .  S
N904        C908   1.356       .  A
Mn905     Cl1258   2.542       .  S
Mn906      N1254   2.220   1_554  S
Mn906      Cl907   2.556       .  S
Cl907     Mn1256   2.541   1_554  S
C910        C911   1.407       .  A
C910        C915   1.407       .  A
C911        C912   1.401       .  A
C911        H924   1.083       .  S
C912        C913   1.406       .  A
C912        H925   1.083       .  S
C913        C914   1.411       .  A
C913        C916   1.500       .  S
C914        C915   1.404       .  A
C914        H926   1.080       .  S
C915        H927   1.083       .  S
C916        C917   1.352       .  D
C916        H928   1.084       .  S
C917        C918   1.500       .  S
C917        H929   1.084       .  S
C918        C919   1.406       .  A
C918        C923   1.411       .  A
C919        C920   1.400       .  A
C919        H930   1.084       .  S
C920        C921   1.406       .  A
C920        H931   1.083       .  S
C921        C922   1.408       .  A
C922        C923   1.405       .  A
C922        H932   1.083       .  S
C923        H933   1.080       .  S
C934        C935   1.406       .  A
C934        C939   1.406       .  A
C935        C936   1.400       .  A
C935        H948   1.083       .  S
C936        C937   1.406       .  A
C936        H949   1.083       .  S
C937        C938   1.411       .  A
C937        C940   1.497       .  S
C938        C939   1.400       .  A
C938        H950   1.079       .  S
C939        H951   1.083       .  S
C940        C941   1.351       .  D
C940        H952   1.084       .  S
C941        C942   1.492       .  S
C941        H953   1.082       .  S
C942        C943   1.404       .  A
C942        C947   1.409       .  A
C943        C944   1.398       .  A
C943        H954   1.083       .  S
C944        C945   1.407       .  A
C944        H955   1.083       .  S
C945        C946   1.407       .  A
C946        C947   1.402       .  A
C946        H956   1.083       .  S
C947        H957   1.081       .  S
C958        C959   1.407       .  A
C958        C963   1.405       .  A
C959        C960   1.398       .  A
C959        H972   1.083       .  S
C960        C961   1.404       .  A
C960        H973   1.084       .  S
C961        C962   1.413       .  A
C961        C964   1.498       .  S
C962        C963   1.403       .  A
C962        H974   1.079       .  S
C963        H975   1.083       .  S
C964        C965   1.350       .  D
C964        H976   1.083       .  S
C965        C966   1.495       .  S
C965        H977   1.083       .  S
C966        C967   1.404       .  A
C966        C971   1.412       .  A
C967        C968   1.396       .  A
C967        H978   1.084       .  S
C968        C969   1.406       .  A
C968        H979   1.083       .  S
C969        C970   1.407       .  A
C970        C971   1.404       .  A
C970        H980   1.083       .  S
C971        H981   1.080       .  S
C982        C983   1.407       .  A
C982        C987   1.407       .  A
C983        C984   1.397       .  A
C983        H996   1.083       .  S
C984        C985   1.404       .  A
C984        H997   1.084       .  S
C985        C986   1.412       .  A
C985        C988   1.498       .  S
C986        C987   1.405       .  A
C986        H998   1.080       .  S
C987        H999   1.083       .  S
C988        C989   1.350       .  D
C988       H1000   1.083       .  S
C989        C990   1.500       .  S
C989       H1001   1.084       .  S
C990        C991   1.404       .  A
C990        C995   1.413       .  A
C991        C992   1.398       .  A
C991       H1002   1.083       .  S
C992        C993   1.408       .  A
C992       H1003   1.083       .  S
C993        C994   1.407       .  A
C994        C995   1.406       .  A
C994       H1004   1.083       .  S
C995       H1005   1.079       .  S
C1006      C1007   1.409       .  A
C1006      C1011   1.406       .  A
C1007      C1008   1.397       .  A
C1007      H1020   1.083       .  S
C1008      C1009   1.402       .  A
C1008      H1021   1.084       .  S
C1009      C1010   1.410       .  A
C1009      C1012   1.491       .  S
C1010      C1011   1.403       .  A
C1010      H1022   1.081       .  S
C1011      H1023   1.083       .  S
C1012      C1013   1.348       .  D
C1012      H1024   1.084       .  S
C1013      C1014   1.492       .  S
C1013      H1025   1.085       .  S
C1014      C1015   1.402       .  A
C1014      C1019   1.411       .  A
C1015      C1016   1.396       .  A
C1015      H1026   1.084       .  S
C1016      C1017   1.407       .  A
C1016      H1027   1.083       .  S
C1017      C1018   1.407       .  A
C1018      C1019   1.404       .  A
C1018      H1028   1.083       .  S
C1019      H1029   1.080       .  S
C1030      C1031   1.407       .  A
C1030      C1035   1.405       .  A
C1031      C1032   1.399       .  A
C1031      H1044   1.083       .  S
C1032      C1033   1.404       .  A
C1032      H1045   1.084       .  S
C1033      C1034   1.411       .  A
C1033      C1036   1.495       .  S
C1034      C1035   1.402       .  A
C1034      H1046   1.080       .  S
C1035      H1047   1.083       .  S
C1036      C1037   1.349       .  D
C1036      H1048   1.085       .  S
C1037      C1038   1.492       .  S
C1037      H1049   1.084       .  S
C1038      C1039   1.403       .  A
C1038      C1043   1.411       .  A
C1039      C1040   1.397       .  A
C1039      H1050   1.084       .  S
C1040      C1041   1.407       .  A
C1040      H1051   1.083       .  S
C1041      C1042   1.406       .  A
C1042      C1043   1.403       .  A
C1042      H1052   1.083       .  S
C1043      H1053   1.081       .  S
C1054      N1055   1.356       .  A
C1054      N1059   1.361       .  A
C1054      C1381   1.491       .  S
N1055      C1056   1.356       .  A
C1056      N1057   1.359       .  A
C1056      C1146   1.465       .  S
N1057      C1058   1.361       .  A
C1058      N1059   1.364       .  A
C1058      C1224   1.469       .  S
C1060      N1061   1.360       .  A
C1060      N1065   1.354       .  A
C1060      C1392   1.489       .  S
N1061      C1062   1.364       .  A
C1062      N1063   1.362       .  A
C1062      C1134   1.469       .  S
N1063      C1064   1.359       .  A
C1064      N1065   1.354       .  A
C1064      C1236   1.462       .  S
C1066      N1067   1.356       .  A
C1066      N1071   1.360       .  A
C1066      C1368   1.490       .  S
N1067      C1068   1.357       .  A
C1068      N1069   1.358       .  A
C1068      C1191   1.464       .  S
N1069      C1070   1.360       .  A
C1070      N1071   1.363       .  A
C1070      C1259   1.466       .  S
C1072      N1073   1.356       .  A
C1072      N1077   1.360       .  A
C1072      C1357   1.490       .  S
N1073      C1074   1.356       .  A
C1074      N1075   1.359       .  A
C1074      C1247   1.465       .  S
N1075      C1076   1.362       .  A
C1076      N1077   1.364       .  A
C1076      C1179   1.469       .  S
C1078      N1079   1.361       .  A
C1078      N1083   1.355       .  A
C1078      C1333   1.490       .  S
N1079      C1080   1.364       .  A
C1080      N1081   1.360       .  A
C1080      C1169   1.470       .  S
N1081      C1082   1.359       .  A
C1082      N1083   1.355       .  A
C1082      C1202   1.463       .  S
C1084      N1085   1.361       .  A
C1084      N1089   1.355       .  A
C1084      C1344   1.489       .  S
N1085      C1086   1.365       .  A
C1086      N1087   1.361       .  A
C1086      C1214   1.469       .  S
N1087      C1088   1.359       .  A
C1088      N1089   1.354       .  A
C1088      C1157   1.464       .  S
C1090      N1091   1.356       .  A
C1090      N1095   1.359       .  A
C1090      C1309   1.488       .  S
N1091      C1092   1.356       .  A
C1092      N1093   1.357       .  A
C1092      C1215   1.460       .  S
N1093      C1094   1.359       .  A
C1094      N1095   1.362       .  A
C1094      C1235   1.464       .  S
C1096      N1097   1.361       .  A
C1096      N1101   1.357       .  A
C1096      C1320   1.491       .  S
N1097      C1098   1.364       .  A
C1098      N1099   1.359       .  A
C1098      C1201   1.468       .  S
N1099      C1100   1.357       .  A
C1100      N1101   1.357       .  A
C1100      C1225   1.464       .  S
C1102      N1103   1.358       .  A
C1102      N1107   1.358       .  A
C1102      C1296   1.488       .  S
N1103      C1104   1.360       .  A
C1104      N1105   1.359       .  A
C1104      C1180   1.462       .  S
N1105      C1106   1.357       .  A
C1106      N1107   1.359       .  A
C1106      C1145   1.464       .  S
C1108      N1109   1.357       .  A
C1108      N1113   1.359       .  A
C1108      C1285   1.488       .  S
N1109      C1110   1.359       .  A
C1110      N1111   1.359       .  A
C1110      C1190   1.466       .  S
N1111      C1112   1.361       .  A
C1112      N1113   1.360       .  A
C1112      C1135   1.466       .  S
C1114      N1115   1.361       .  A
C1114      N1119   1.357       .  A
C1114      C1261   1.490       .  S
N1115      C1116   1.363       .  A
C1116      N1117   1.361       .  A
C1116      C1156   1.470       .  S
N1117      C1118   1.359       .  A
C1118      N1119   1.357       .  A
C1118      C1260   1.466       .  S
C1120      N1121   1.358       .  A
C1120      N1125   1.357       .  A
C1120      C1272   1.488       .  S
N1121      C1122   1.361       .  A
C1122      N1123   1.360       .  A
C1122      C1246   1.465       .  S
N1123      C1124   1.359       .  A
C1124      N1125   1.358       .  A
C1124      C1170   1.466       .  S
N1126      N1127   1.319       .  A
N1126      N1132   1.316       .  A
N1126     Mn1155   2.194       .  S
N1127      C1134   1.349       .  A
N1128      N1130   1.317       .  A
N1128      N1129   1.323       .  A
N1129      C1135   1.354       .  A
N1130      N1131   1.319       .  A
N1130     Mn1155   2.199       .  S
N1131      C1135   1.351       .  A
N1132      N1133   1.324       .  A
N1133      C1134   1.356       .  A
N1136      N1142   1.316       .  A
N1136      N1137   1.316       .  A
N1136     Mn1166   2.179       .  S
N1137      C1145   1.347       .  A
N1138      N1139   1.325       .  A
N1138      N1140   1.316       .  A
N1138     Mn1144   2.218       .  S
N1139      C1146   1.356       .  A
N1140      N1141   1.316       .  A
N1140     Mn1166   2.187       .  S
N1141      C1146   1.348       .  A
N1142      N1143   1.325       .  A
N1142     Mn1144   2.222       .  S
N1143      C1145   1.357       .  A
Mn1144    Cl1168   2.556       .  S
N1147      N1148   1.319       .  A
N1147      N1153   1.317       .  A
N1147     Mn1155   2.192       .  S
N1148      C1156   1.349       .  A
N1149      N1151   1.317       .  A
N1149      N1150   1.324       .  A
N1150      C1157   1.353       .  A
N1151      N1152   1.317       .  A
N1151     Mn1155   2.198       .  S
N1152      C1157   1.350       .  A
N1153      N1154   1.325       .  A
N1154      C1156   1.357       .  A
N1158      N1159   1.317       .  A
N1158      N1164   1.316       .  A
N1158     Mn1166   2.181       .  S
N1159      C1169   1.347       .  A
N1160      N1161   1.325       .  A
N1160      N1162   1.316       .  A
N1160     Mn1167   2.223       .  S
N1161      C1170   1.357       .  A
N1162      N1163   1.316       .  A
N1162     Mn1166   2.186       .  S
N1163      C1170   1.348       .  A
N1164      N1165   1.326       .  A
N1164     Mn1167   2.232       .  S
N1165      C1169   1.358       .  A
Mn1166    Cl1168   2.541       .  S
Mn1167    Cl1168   2.558       .  S
N1171      N1172   1.318       .  A
N1171      N1177   1.316       .  A
N1171     Mn2604   2.191   1_455  S
N1172      C1179   1.349       .  A
N1173      N1175   1.317       .  A
N1173      N1174   1.322       .  A
N1173     Mn1189   2.214       .  S
N1174      C1180   1.354       .  A
N1175      N1176   1.318       .  A
N1175     Mn1200   2.189       .  S
N1176      C1180   1.349       .  A
N1177      N1178   1.324       .  A
N1177     Mn2593   2.221   1_455  S
N1178      C1179   1.356       .  A
N1181      N1187   1.316       .  A
N1181      N1182   1.316       .  A
N1181     Mn1211   2.183       .  S
N1182      C1190   1.348       .  A
N1183      N1184   1.325       .  A
N1183      N1185   1.316       .  A
N1183     Mn2242   2.223   1_456  S
N1184      C1191   1.356       .  A
N1185      N1186   1.315       .  A
N1185     Mn2615   2.182   1_455  S
N1186      C1191   1.347       .  A
N1187      N1188   1.325       .  A
N1188      C1190   1.356       .  A
Mn1189     N2581   2.220       .  S
Mn1189     N2236   2.214       .  S
Mn1189    Cl1213   2.555       .  S
N1192      N1193   1.318       .  A
N1192      N1198   1.316       .  A
N1192     Mn1200   2.186       .  S
N1193      C1201   1.348       .  A
N1194      N1196   1.317       .  A
N1194      N1195   1.324       .  A
N1194     Mn2616   2.214   1_455  S
N1195      C1202   1.354       .  A
N1196      N1197   1.317       .  A
N1196     Mn2604   2.195   1_455  S
N1197      C1202   1.349       .  A
N1198      N1199   1.324       .  A
N1198     Mn1212   2.223       .  S
N1199      C1201   1.356       .  A
Mn1200     N2575   2.187       .  S
Mn1200     N2600   2.187       .  S
Mn1200    Cl1213   2.543       .  S
N1203      N1204   1.318       .  A
N1203      N1209   1.315       .  A
N1203     Mn2615   2.183   1_455  S
N1204      C1214   1.348       .  A
N1205      N1206   1.323       .  A
N1205      N1207   1.315       .  A
N1206      C1215   1.355       .  A
N1207      N1208   1.315       .  A
N1207     Mn1211   2.184       .  S
N1208      C1215   1.348       .  A
N1209      N1210   1.325       .  A
N1209     Mn2265   2.226   1_456  S
N1210      C1214   1.357       .  A
Mn1211     N2589   2.182       .  S
Mn1211     N2607   2.182       .  S
Mn1212     N2598   2.215       .  S
Mn1212     N2262   2.222       .  S
Mn1212    Cl1213   2.555       .  S
N1216      N1217   1.318       .  A
N1216      N1222   1.316       .  A
N1216     Mn1245   2.188       .  S
N1217      C1224   1.349       .  A
N1218      N1220   1.316       .  A
N1218      N1219   1.324       .  A
N1219      C1225   1.355       .  A
N1220      N1221   1.316       .  A
N1221      C1225   1.348       .  A
N1222      N1223   1.325       .  A
N1222     Mn1234   2.226       .  S
N1223      C1224   1.357       .  A
N1226      N1232   1.316       .  A
N1226      N1227   1.317       .  A
N1227      C1235   1.347       .  A
N1228      N1229   1.325       .  A
N1228      N1230   1.316       .  A
N1229      C1236   1.355       .  A
N1230      N1231   1.315       .  A
N1230     Mn1256   2.188       .  S
N1231      C1236   1.348       .  A
N1232      N1233   1.324       .  A
N1233      C1235   1.356       .  A
Mn1234    Cl1258   2.555       .  S
N1237      N1238   1.317       .  A
N1237      N1243   1.316       .  A
N1238      C1246   1.348       .  A
N1239      N1241   1.316       .  A
N1239      N1240   1.325       .  A
N1239     Mn1257   2.218       .  S
N1240      C1247   1.356       .  A
N1241      N1242   1.316       .  A
N1241     Mn1245   2.190       .  S
N1242      C1247   1.349       .  A
N1243      N1244   1.324       .  A
N1244      C1246   1.356       .  A
Mn1245    Cl1258   2.542       .  S
N1248      N1249   1.318       .  A
N1248      N1254   1.316       .  A
N1248     Mn1256   2.186       .  S
N1249      C1259   1.349       .  A
N1250      N1251   1.324       .  A
N1250      N1252   1.316       .  A
N1251      C1260   1.355       .  A
N1252      N1253   1.317       .  A
N1253      C1260   1.349       .  A
N1254      N1255   1.324       .  A
N1255      C1259   1.356       .  A
Mn1257    Cl1258   2.555       .  S
C1261      C1262   1.407       .  A
C1261      C1266   1.406       .  A
C1262      C1263   1.399       .  A
C1262      H1275   1.083       .  S
C1263      C1264   1.405       .  A
C1263      H1276   1.083       .  S
C1264      C1265   1.412       .  A
C1264      C1267   1.498       .  S
C1265      C1266   1.402       .  A
C1265      H1277   1.079       .  S
C1266      H1278   1.083       .  S
C1267      C1268   1.350       .  D
C1267      H1279   1.084       .  S
C1268      C1269   1.494       .  S
C1268      H1280   1.083       .  S
C1269      C1270   1.404       .  A
C1269      C1274   1.410       .  A
C1270      C1271   1.398       .  A
C1270      H1281   1.084       .  S
C1271      C1272   1.406       .  A
C1271      H1282   1.083       .  S
C1272      C1273   1.407       .  A
C1273      C1274   1.403       .  A
C1273      H1283   1.083       .  S
C1274      H1284   1.081       .  S
C1285      C1286   1.407       .  A
C1285      C1290   1.406       .  A
C1286      C1287   1.400       .  A
C1286      H1299   1.083       .  S
C1287      C1288   1.405       .  A
C1287      H1300   1.083       .  S
C1288      C1289   1.410       .  A
C1288      C1291   1.495       .  S
C1289      C1290   1.400       .  A
C1289      H1301   1.080       .  S
C1290      H1302   1.083       .  S
C1291      C1292   1.351       .  D
C1291      H1303   1.084       .  S
C1292      C1293   1.492       .  S
C1292      H1304   1.083       .  S
C1293      C1294   1.404       .  A
C1293      C1298   1.409       .  A
C1294      C1295   1.398       .  A
C1294      H1305   1.083       .  S
C1295      C1296   1.406       .  A
C1295      H1306   1.083       .  S
C1296      C1297   1.407       .  A
C1297      C1298   1.402       .  A
C1297      H1307   1.083       .  S
C1298      H1308   1.081       .  S
C1309      C1310   1.407       .  A
C1309      C1314   1.406       .  A
C1310      C1311   1.398       .  A
C1310      H1323   1.083       .  S
C1311      C1312   1.403       .  A
C1311      H1324   1.084       .  S
C1312      C1313   1.411       .  A
C1312      C1315   1.494       .  S
C1313      C1314   1.403       .  A
C1313      H1325   1.081       .  S
C1314      H1326   1.083       .  S
C1315      C1316   1.350       .  D
C1315      H1327   1.083       .  S
C1316      C1317   1.497       .  S
C1316      H1328   1.085       .  S
C1317      C1318   1.404       .  A
C1317      C1322   1.412       .  A
C1318      C1319   1.398       .  A
C1318      H1329   1.084       .  S
C1319      C1320   1.407       .  A
C1319      H1330   1.083       .  S
C1320      C1321   1.407       .  A
C1321      C1322   1.404       .  A
C1321      H1331   1.083       .  S
C1322      H1332   1.079       .  S
C1333      C1334   1.408       .  A
C1333      C1338   1.406       .  A
C1334      C1335   1.397       .  A
C1334      H1347   1.083       .  S
C1335      C1336   1.402       .  A
C1335      H1348   1.083       .  S
C1336      C1337   1.411       .  A
C1336      C1339   1.493       .  S
C1337      C1338   1.403       .  A
C1337      H1349   1.081       .  S
C1338      H1350   1.083       .  S
C1339      C1340   1.347       .  D
C1339      H1351   1.085       .  S
C1340      C1341   1.491       .  S
C1340      H1352   1.084       .  S
C1341      C1342   1.401       .  A
C1341      C1346   1.411       .  A
C1342      C1343   1.395       .  A
C1342      H1353   1.083       .  S
C1343      C1344   1.408       .  A
C1343      H1354   1.083       .  S
C1344      C1345   1.407       .  A
C1345      C1346   1.405       .  A
C1345      H1355   1.083       .  S
C1346      H1356   1.081       .  S
C1357      C1358   1.408       .  A
C1357      C1362   1.407       .  A
C1358      C1359   1.397       .  A
C1358      H1371   1.083       .  S
C1359      C1360   1.402       .  A
C1359      H1372   1.084       .  S
C1360      C1361   1.410       .  A
C1360      C1363   1.493       .  S
C1361      C1362   1.404       .  A
C1361      H1373   1.081       .  S
C1362      H1374   1.083       .  S
C1363      C1364   1.349       .  D
C1363      H1375   1.083       .  S
C1364      C1365   1.496       .  S
C1364      H1376   1.085       .  S
C1365      C1366   1.404       .  A
C1365      C1370   1.411       .  A
C1366      C1367   1.398       .  A
C1366      H1377   1.084       .  S
C1367      C1368   1.407       .  A
C1367      H1378   1.083       .  S
C1368      C1369   1.406       .  A
C1369      C1370   1.403       .  A
C1369      H1379   1.083       .  S
C1370      H1380   1.080       .  S
C1381      C1382   1.407       .  A
C1381      C1386   1.406       .  A
C1382      C1383   1.397       .  A
C1382      H1395   1.083       .  S
C1383      C1384   1.403       .  A
C1383      H1396   1.084       .  S
C1384      C1385   1.412       .  A
C1384      C1387   1.497       .  S
C1385      C1386   1.404       .  A
C1385      H1397   1.079       .  S
C1386      H1398   1.083       .  S
C1387      C1388   1.349       .  D
C1387      H1399   1.084       .  S
C1388      C1389   1.494       .  S
C1388      H1400   1.083       .  S
C1389      C1390   1.402       .  A
C1389      C1394   1.412       .  A
C1390      C1391   1.396       .  A
C1390      H1401   1.084       .  S
C1391      C1392   1.408       .  A
C1391      H1402   1.083       .  S
C1392      C1393   1.406       .  A
C1393      C1394   1.404       .  A
C1393      H1403   1.083       .  S
C1394      H1404   1.080       .  S
C1405      N1406   1.357       .  A
C1405      N1410   1.362       .  A
C1405      C1732   1.494       .  S
N1406      C1407   1.357       .  A
C1407      N1408   1.359       .  A
C1407      C1497   1.468       .  S
N1408      C1409   1.361       .  A
C1409      N1410   1.365       .  A
C1409      C1575   1.473       .  S
C1411      N1412   1.360       .  A
C1411      N1416   1.355       .  A
C1411      C1743   1.490       .  S
N1412      C1413   1.364       .  A
C1413      N1414   1.361       .  A
C1413      C1485   1.469       .  S
N1414      C1415   1.359       .  A
C1415      N1416   1.357       .  A
C1415      C1587   1.464       .  S
C1417      N1418   1.357       .  A
C1417      N1422   1.360       .  A
C1417      C1719   1.491       .  S
N1418      C1419   1.355       .  A
C1419      N1420   1.358       .  A
C1419      C1542   1.465       .  S
N1420      C1421   1.360       .  A
C1421      N1422   1.364       .  A
C1421      C1610   1.467       .  S
C1423      N1424   1.354       .  A
C1423      N1428   1.360       .  A
C1423      C1708   1.489       .  S
N1424      C1425   1.356       .  A
C1425      N1426   1.357       .  A
C1425      C1598   1.460       .  S
N1426      C1427   1.359       .  A
C1427      N1428   1.364       .  A
C1427      C1530   1.467       .  S
C1429      N1430   1.360       .  A
C1429      N1434   1.355       .  A
C1429      C1684   1.487       .  S
N1430      C1431   1.363       .  A
C1431      N1432   1.361       .  A
C1431      C1520   1.469       .  S
N1432      C1433   1.359       .  A
C1433      N1434   1.354       .  A
C1433      C1553   1.463       .  S
C1435      N1436   1.361       .  A
C1435      N1440   1.354       .  A
C1435      C1695   1.488       .  S
N1436      C1437   1.364       .  A
C1437      N1438   1.361       .  A
C1437      C1565   1.469       .  S
N1438      C1439   1.358       .  A
C1439      N1440   1.354       .  A
C1439      C1508   1.462       .  S
C1441      N1442   1.356       .  A
C1441      N1446   1.360       .  A
C1441      C1660   1.487       .  S
N1442      C1443   1.357       .  A
C1443      N1444   1.359       .  A
C1443      C1566   1.464       .  S
N1444      C1445   1.360       .  A
C1445      N1446   1.364       .  A
C1445      C1586   1.470       .  S
C1447      N1448   1.360       .  A
C1447      N1452   1.357       .  A
C1447      C1671   1.491       .  S
N1448      C1449   1.363       .  A
C1449      N1450   1.362       .  A
C1449      C1552   1.471       .  S
N1450      C1451   1.360       .  A
C1451      N1452   1.357       .  A
C1451      C1576   1.469       .  S
C1453      N1454   1.359       .  A
C1453      N1458   1.356       .  A
C1453      C1647   1.490       .  S
N1454      C1455   1.362       .  A
C1455      N1456   1.360       .  A
C1455      C1531   1.465       .  S
N1456      C1457   1.358       .  A
C1457      N1458   1.357       .  A
C1457      C1496   1.465       .  S
C1459      N1460   1.359       .  A
C1459      N1464   1.358       .  A
C1459      C1636   1.491       .  S
N1460      C1461   1.360       .  A
C1461      N1462   1.359       .  A
C1461      C1541   1.470       .  S
N1462      C1463   1.360       .  A
C1463      N1464   1.360       .  A
C1463      C1486   1.465       .  S
C1465      N1466   1.361       .  A
C1465      N1470   1.355       .  A
C1465      C1612   1.486       .  S
N1466      C1467   1.363       .  A
C1467      N1468   1.360       .  A
C1467      C1507   1.467       .  S
N1468      C1469   1.357       .  A
C1469      N1470   1.355       .  A
C1469      C1611   1.462       .  S
C1471      N1472   1.358       .  A
C1471      N1476   1.356       .  A
C1471      C1623   1.485       .  S
N1472      C1473   1.360       .  A
C1473      N1474   1.359       .  A
C1473      C1597   1.463       .  S
N1474      C1475   1.358       .  A
C1475      N1476   1.357       .  A
C1475      C1521   1.462       .  S
N1477      N1478   1.318       .  A
N1477      N1483   1.316       .  A
N1477     Mn1506   2.187       .  S
N1478      C1485   1.348       .  A
N1479      N1481   1.317       .  A
N1479      N1480   1.323       .  A
N1479     Mn1846   2.216       .  S
N1480      C1486   1.354       .  A
N1481      N1482   1.318       .  A
N1481     Mn1506   2.191       .  S
N1482      C1486   1.349       .  A
N1483      N1484   1.325       .  A
N1483     Mn1846   2.227       .  S
N1484      C1485   1.357       .  A
N1487      N1493   1.316       .  A
N1487      N1488   1.316       .  A
N1487     Mn1517   2.185       .  S
N1488      C1496   1.347       .  A
N1489      N1490   1.326       .  A
N1489      N1491   1.316       .  A
N1489     Mn1495   2.223       .  S
N1490      C1497   1.356       .  A
N1491      N1492   1.317       .  A
N1491     Mn1517   2.189       .  S
N1492      C1497   1.349       .  A
N1493      N1494   1.325       .  A
N1493     Mn1495   2.220       .  S
N1494      C1496   1.356       .  A
Mn1495     N1830   2.221   1_554  S
Mn1495     N1834   2.218   1_554  S
Mn1495    Cl1519   2.557       .  S
N1498      N1499   1.319       .  A
N1498      N1504   1.316       .  A
N1498     Mn1506   2.190       .  S
N1499      C1507   1.350       .  A
N1500      N1502   1.316       .  A
N1500      N1501   1.324       .  A
N1500     Mn1869   2.213       .  S
N1501      C1508   1.354       .  A
N1502      N1503   1.316       .  A
N1502     Mn1506   2.190       .  S
N1503      C1508   1.349       .  A
N1504      N1505   1.323       .  A
N1504     Mn1869   2.220       .  S
N1505      C1507   1.355       .  A
Mn1506    Cl1870   2.545       .  S
N1509      N1510   1.318       .  A
N1509      N1515   1.316       .  A
N1509     Mn1517   2.189       .  S
N1510      C1520   1.349       .  A
N1511      N1512   1.323       .  A
N1511      N1513   1.316       .  A
N1511     Mn1518   2.211       .  S
N1512      C1521   1.354       .  A
N1513      N1514   1.317       .  A
N1513     Mn1517   2.189       .  S
N1514      C1521   1.349       .  A
N1515      N1516   1.324       .  A
N1515     Mn1518   2.224       .  S
N1516      C1520   1.356       .  A
Mn1517    Cl1519   2.542       .  S
Mn1518     N1851   2.214   1_554  S
Mn1518     N1855   2.225   1_554  S
Mn1518    Cl1519   2.556       .  S
Cl1519    Mn1857   2.543   1_554  S
N1522      N1523   1.317       .  A
N1522      N1528   1.316       .  A
N1523      C1530   1.347       .  A
N1524      N1526   1.317       .  A
N1524      N1525   1.324       .  A
N1524     Mn1540   2.221       .  S
N1525      C1531   1.356       .  A
N1526      N1527   1.317       .  A
N1526     Mn1551   2.188       .  S
N1527      C1531   1.348       .  A
N1528      N1529   1.325       .  A
N1529      C1530   1.357       .  A
N1532      N1538   1.316       .  A
N1532      N1533   1.317       .  A
N1532     Mn1562   2.185       .  S
N1533      C1541   1.348       .  A
N1534      N1535   1.324       .  A
N1534      N1536   1.316       .  A
N1535      C1542   1.355       .  A
N1536      N1537   1.316       .  A
N1537      C1542   1.349       .  A
N1538      N1539   1.326       .  A
N1538     Mn1891   2.229       .  S
N1539      C1541   1.358       .  A
Mn1540     N1889   2.227   1_554  S
Mn1540    Cl1564   2.557       .  S
N1543      N1544   1.319       .  A
N1543      N1549   1.316       .  A
N1543     Mn1551   2.193       .  S
N1544      C1552   1.350       .  A
N1545      N1547   1.316       .  A
N1545      N1546   1.323       .  A
N1546      C1553   1.353       .  A
N1547      N1548   1.317       .  A
N1548      C1553   1.350       .  A
N1549      N1550   1.324       .  A
N1549     Mn1563   2.221       .  S
N1550      C1552   1.356       .  A
Mn1551    Cl1564   2.542       .  S
N1554      N1555   1.318       .  A
N1554      N1560   1.316       .  A
N1555      C1565   1.348       .  A
N1556      N1557   1.325       .  A
N1556      N1558   1.316       .  A
N1556     Mn1914   2.219       .  S
N1557      C1566   1.356       .  A
N1558      N1559   1.316       .  A
N1558     Mn1562   2.184       .  S
N1559      C1566   1.348       .  A
N1560      N1561   1.325       .  A
N1561      C1565   1.357       .  A
Mn1562    Cl1915   2.541       .  S
Mn1563     N1907   2.213   1_554  S
Mn1563    Cl1564   2.555       .  S
Cl1564    Mn1913   2.539   1_554  S
N1567      N1568   1.319       .  A
N1567      N1573   1.316       .  A
N1567     Mn1596   2.189       .  S
N1568      C1575   1.349       .  A
N1569      N1571   1.316       .  A
N1569      N1570   1.325       .  A
N1569     Mn2287   2.222   1_545  S
N1570      C1576   1.356       .  A
N1571      N1572   1.317       .  A
N1571     Mn2298   2.191   1_545  S
N1572      C1576   1.350       .  A
N1573      N1574   1.325       .  A
N1573     Mn1585   2.229       .  S
N1574      C1575   1.358       .  A
N1577      N1583   1.316       .  A
N1577      N1578   1.318       .  A
N1577     Mn2309   2.186   1_545  S
N1578      C1586   1.348       .  A
N1579      N1580   1.325       .  A
N1579      N1581   1.316       .  A
N1579     Mn1936   2.223       .  S
N1580      C1587   1.357       .  A
N1581      N1582   1.315       .  A
N1581     Mn1607   2.181       .  S
N1582      C1587   1.347       .  A
N1583      N1584   1.325       .  A
N1583     Mn2638   2.230   1_545  S
N1584      C1586   1.357       .  A
Mn1585     N2271   2.216       .  S
Mn1585     N1930   2.216   1_554  S
Mn1585     N2636   2.226   1_554  S
Mn1585    Cl1609   2.557       .  S
N1588      N1589   1.317       .  A
N1588      N1594   1.316       .  A
N1588     Mn2298   2.187   1_545  S
N1589      C1597   1.348       .  A
N1590      N1592   1.316       .  A
N1590      N1591   1.324       .  A
N1590     Mn1608   2.217       .  S
N1591      C1598   1.355       .  A
N1592      N1593   1.314       .  A
N1592     Mn1596   2.180       .  S
N1593      C1598   1.347       .  A
N1594      N1595   1.324       .  A
N1594     Mn2310   2.215   1_545  S
N1595      C1597   1.355       .  A
Mn1596     N2273   2.184       .  S
Mn1596     N2290   2.185       .  S
Mn1596    Cl1609   2.541       .  S
N1599      N1600   1.318       .  A
N1599      N1605   1.315       .  A
N1599     Mn1607   2.184       .  S
N1600      C1610   1.348       .  A
N1601      N1602   1.324       .  A
N1601      N1603   1.316       .  A
N1601     Mn2661   2.215   1_545  S
N1602      C1611   1.355       .  A
N1603      N1604   1.315       .  A
N1603     Mn2309   2.185   1_545  S
N1604      C1611   1.348       .  A
N1605      N1606   1.324       .  A
N1605     Mn1959   2.221       .  S
N1606      C1610   1.357       .  A
Mn1607     N2279   2.188       .  S
Mn1607     N2305   2.183       .  S
Mn1607    Cl1960   2.542       .  S
Mn1608     N2296   2.229       .  S
Mn1608     N2654   2.222   1_554  S
Mn1608     N1956   2.226   1_554  S
Mn1608    Cl1609   2.556       .  S
Cl1609    Mn1958   2.542   1_554  S
C1612      C1613   1.408       .  A
C1612      C1617   1.405       .  A
C1613      C1614   1.397       .  A
C1613      H1626   1.083       .  S
C1614      C1615   1.403       .  A
C1614      H1627   1.083       .  S
C1615      C1616   1.411       .  A
C1615      C1618   1.491       .  S
C1616      C1617   1.401       .  A
C1616      H1628   1.080       .  S
C1617      H1629   1.083       .  S
C1618      C1619   1.347       .  D
C1618      H1630   1.085       .  S
C1619      C1620   1.488       .  S
C1619      H1631   1.084       .  S
C1620      C1621   1.402       .  A
C1620      C1625   1.409       .  A
C1621      C1622   1.396       .  A
C1621      H1632   1.084       .  S
C1622      C1623   1.406       .  A
C1622      H1633   1.083       .  S
C1623      C1624   1.407       .  A
C1624      C1625   1.401       .  A
C1624      H1634   1.083       .  S
C1625      H1635   1.081       .  S
C1636      C1637   1.406       .  A
C1636      C1641   1.409       .  A
C1637      C1638   1.398       .  A
C1637      H1650   1.083       .  S
C1638      C1639   1.404       .  A
C1638      H1651   1.083       .  S
C1639      C1640   1.411       .  A
C1639      C1642   1.495       .  S
C1640      C1641   1.404       .  A
C1640      H1652   1.080       .  S
C1641      H1653   1.083       .  S
C1642      C1643   1.350       .  D
C1642      H1654   1.083       .  S
C1643      C1644   1.496       .  S
C1643      H1655   1.084       .  S
C1644      C1645   1.404       .  A
C1644      C1649   1.411       .  A
C1645      C1646   1.398       .  A
C1645      H1656   1.083       .  S
C1646      C1647   1.407       .  A
C1646      H1657   1.083       .  S
C1647      C1648   1.407       .  A
C1648      C1649   1.403       .  A
C1648      H1658   1.083       .  S
C1649      H1659   1.080       .  S
C1660      C1661   1.407       .  A
C1660      C1665   1.405       .  A
C1661      C1662   1.400       .  A
C1661      H1674   1.083       .  S
C1662      C1663   1.405       .  A
C1662      H1675   1.084       .  S
C1663      C1664   1.411       .  A
C1663      C1666   1.495       .  S
C1664      C1665   1.403       .  A
C1664      H1676   1.081       .  S
C1665      H1677   1.083       .  S
C1666      C1667   1.350       .  D
C1666      H1678   1.084       .  S
C1667      C1668   1.495       .  S
C1667      H1679   1.085       .  S
C1668      C1669   1.404       .  A
C1668      C1673   1.411       .  A
C1669      C1670   1.398       .  A
C1669      H1680   1.084       .  S
C1670      C1671   1.407       .  A
C1670      H1681   1.083       .  S
C1671      C1672   1.407       .  A
C1672      C1673   1.405       .  A
C1672      H1682   1.083       .  S
C1673      H1683   1.081       .  S
C1684      C1685   1.407       .  A
C1684      C1689   1.406       .  A
C1685      C1686   1.395       .  A
C1685      H1698   1.083       .  S
C1686      C1687   1.401       .  A
C1686      H1699   1.084       .  S
C1687      C1688   1.411       .  A
C1687      C1690   1.490       .  S
C1688      C1689   1.403       .  A
C1688      H1700   1.081       .  S
C1689      H1701   1.083       .  S
C1690      C1691   1.346       .  D
C1690      H1702   1.085       .  S
C1691      C1692   1.489       .  S
C1691      H1703   1.084       .  S
C1692      C1693   1.401       .  A
C1692      C1697   1.410       .  A
C1693      C1694   1.396       .  A
C1693      H1704   1.083       .  S
C1694      C1695   1.408       .  A
C1694      H1705   1.083       .  S
C1695      C1696   1.406       .  A
C1696      C1697   1.402       .  A
C1696      H1706   1.083       .  S
C1697      H1707   1.081       .  S
C1708      C1709   1.408       .  A
C1708      C1713   1.404       .  A
C1709      C1710   1.399       .  A
C1709      H1722   1.083       .  S
C1710      C1711   1.404       .  A
C1710      H1723   1.084       .  S
C1711      C1712   1.413       .  A
C1711      C1714   1.498       .  S
C1712      C1713   1.402       .  A
C1712      H1724   1.079       .  S
C1713      H1725   1.083       .  S
C1714      C1715   1.349       .  D
C1714      H1726   1.085       .  S
C1715      C1716   1.492       .  S
C1715      H1727   1.083       .  S
C1716      C1717   1.402       .  A
C1716      C1721   1.411       .  A
C1717      C1718   1.395       .  A
C1717      H1728   1.084       .  S
C1718      C1719   1.407       .  A
C1718      H1729   1.083       .  S
C1719      C1720   1.409       .  A
C1720      C1721   1.407       .  A
C1720      H1730   1.083       .  S
C1721      H1731   1.081       .  S
C1732      C1733   1.407       .  A
C1732      C1737   1.408       .  A
C1733      C1734   1.398       .  A
C1733      H1746   1.083       .  S
C1734      C1735   1.404       .  A
C1734      H1747   1.084       .  S
C1735      C1736   1.412       .  A
C1735      C1738   1.498       .  S
C1736      C1737   1.406       .  A
C1736      H1748   1.080       .  S
C1737      H1749   1.083       .  S
C1738      C1739   1.350       .  D
C1738      H1750   1.085       .  S
C1739      C1740   1.496       .  S
C1739      H1751   1.083       .  S
C1740      C1741   1.404       .  A
C1740      C1745   1.411       .  A
C1741      C1742   1.400       .  A
C1741      H1752   1.084       .  S
C1742      C1743   1.408       .  A
C1742      H1753   1.083       .  S
C1743      C1744   1.406       .  A
C1744      C1745   1.404       .  A
C1744      H1754   1.083       .  S
C1745      H1755   1.081       .  S
C1756      N1757   1.356       .  A
C1756      N1761   1.363       .  A
C1756      C2083   1.492       .  S
N1757      C1758   1.355       .  A
C1758      N1759   1.358       .  A
C1758      C1848   1.465       .  S
N1759      C1760   1.361       .  A
C1760      N1761   1.366       .  A
C1760      C1926   1.472       .  S
C1762      N1763   1.359       .  A
C1762      N1767   1.354       .  A
C1762      C2094   1.488       .  S
N1763      C1764   1.363       .  A
C1764      N1765   1.361       .  A
C1764      C1836   1.466       .  S
N1765      C1766   1.359       .  A
C1766      N1767   1.355       .  A
C1766      C1938   1.462       .  S
C1768      N1769   1.353       .  A
C1768      N1773   1.362       .  A
C1768      C2070   1.487       .  S
N1769      C1770   1.353       .  A
C1770      N1771   1.358       .  A
C1770      C1893   1.460       .  S
N1771      C1772   1.361       .  A
C1772      N1773   1.365       .  A
C1772      C1961   1.470       .  S
C1774      N1775   1.355       .  A
C1774      N1779   1.359       .  A
C1774      C2059   1.486       .  S
N1775      C1776   1.355       .  A
C1776      N1777   1.357       .  A
C1776      C1949   1.462       .  S
N1777      C1778   1.360       .  A
C1778      N1779   1.362       .  A
C1778      C1881   1.463       .  S
C1780      N1781   1.360       .  A
C1780      N1785   1.355       .  A
C1780      C2035   1.489       .  S
N1781      C1782   1.363       .  A
C1782      N1783   1.359       .  A
C1782      C1871   1.466       .  S
N1783      C1784   1.358       .  A
C1784      N1785   1.355       .  A
C1784      C1904   1.461       .  S
C1786      N1787   1.361       .  A
C1786      N1791   1.355       .  A
C1786      C2046   1.490       .  S
N1787      C1788   1.364       .  A
C1788      N1789   1.362       .  A
C1788      C1916   1.472       .  S
N1789      C1790   1.360       .  A
C1790      N1791   1.355       .  A
C1790      C1859   1.466       .  S
C1792      N1793   1.354       .  A
C1792      N1797   1.360       .  A
C1792      C2011   1.487       .  S
N1793      C1794   1.354       .  A
C1794      N1795   1.359       .  A
C1794      C1917   1.462       .  S
N1795      C1796   1.361       .  A
C1796      N1797   1.363       .  A
C1796      C1937   1.467       .  S
C1798      N1799   1.359       .  A
C1798      N1803   1.355       .  A
C1798      C2022   1.487       .  S
N1799      C1800   1.362       .  A
C1800      N1801   1.361       .  A
C1800      C1903   1.468       .  S
N1801      C1802   1.359       .  A
C1802      N1803   1.355       .  A
C1802      C1927   1.463       .  S
C1804      N1805   1.358       .  A
C1804      N1809   1.358       .  A
C1804      C1998   1.490       .  S
N1805      C1806   1.359       .  A
C1806      N1807   1.361       .  A
C1806      C1882   1.468       .  S
N1807      C1808   1.360       .  A
C1808      N1809   1.361       .  A
C1808      C1847   1.470       .  S
C1810      N1811   1.357       .  A
C1810      N1815   1.359       .  A
C1810      C1987   1.489       .  S
N1811      C1812   1.358       .  A
C1812      N1813   1.359       .  A
C1812      C1892   1.468       .  S
N1813      C1814   1.361       .  A
C1814      N1815   1.362       .  A
C1814      C1837   1.469       .  S
C1816      N1817   1.359       .  A
C1816      N1821   1.358       .  A
C1816      C1963   1.490       .  S
N1817      C1818   1.361       .  A
C1818      N1819   1.360       .  A
C1818      C1858   1.469       .  S
N1819      C1820   1.360       .  A
C1820      N1821   1.360       .  A
C1820      C1962   1.467       .  S
C1822      N1823   1.359       .  A
C1822      N1827   1.357       .  A
C1822      C1974   1.490       .  S
N1823      C1824   1.362       .  A
C1824      N1825   1.360       .  A
C1824      C1948   1.466       .  S
N1825      C1826   1.358       .  A
C1826      N1827   1.358       .  A
C1826      C1872   1.464       .  S
N1828      N1829   1.318       .  A
N1828      N1834   1.316       .  A
N1828     Mn1857   2.189       .  S
N1829      C1836   1.349       .  A
N1830      N1832   1.317       .  A
N1830      N1831   1.324       .  A
N1831      C1837   1.355       .  A
N1832      N1833   1.319       .  A
N1832     Mn1857   2.195       .  S
N1833      C1837   1.350       .  A
N1834      N1835   1.324       .  A
N1835      C1836   1.356       .  A
N1838      N1844   1.316       .  A
N1838      N1839   1.316       .  A
N1838     Mn1868   2.182       .  S
N1839      C1847   1.347       .  A
N1840      N1841   1.325       .  A
N1840      N1842   1.316       .  A
N1840     Mn1846   2.220       .  S
N1841      C1848   1.356       .  A
N1842      N1843   1.316       .  A
N1842     Mn1868   2.187       .  S
N1843      C1848   1.348       .  A
N1844      N1845   1.327       .  A
N1844     Mn1846   2.232       .  S
N1845      C1847   1.359       .  A
Mn1846    Cl1870   2.556       .  S
N1849      N1850   1.317       .  A
N1849      N1855   1.316       .  A
N1849     Mn1857   2.189       .  S
N1850      C1858   1.349       .  A
N1851      N1853   1.316       .  A
N1851      N1852   1.325       .  A
N1852      C1859   1.355       .  A
N1853      N1854   1.316       .  A
N1853     Mn1857   2.194       .  S
N1854      C1859   1.349       .  A
N1855      N1856   1.325       .  A
N1856      C1858   1.357       .  A
N1860      N1861   1.317       .  A
N1860      N1866   1.316       .  A
N1860     Mn1868   2.183       .  S
N1861      C1871   1.348       .  A
N1862      N1863   1.325       .  A
N1862      N1864   1.316       .  A
N1862     Mn1869   2.217       .  S
N1863      C1872   1.356       .  A
N1864      N1865   1.316       .  A
N1864     Mn1868   2.185       .  S
N1865      C1872   1.348       .  A
N1866      N1867   1.324       .  A
N1866     Mn1869   2.220       .  S
N1867      C1871   1.356       .  A
Mn1868    Cl1870   2.539       .  S
Mn1869    Cl1870   2.555       .  S
N1873      N1874   1.318       .  A
N1873      N1879   1.316       .  A
N1874      C1881   1.349       .  A
N1875      N1877   1.317       .  A
N1875      N1876   1.324       .  A
N1875     Mn1891   2.216       .  S
N1876      C1882   1.354       .  A
N1877      N1878   1.319       .  A
N1877     Mn1902   2.199       .  S
N1878      C1882   1.351       .  A
N1879      N1880   1.323       .  A
N1880      C1881   1.355       .  A
N1883      N1889   1.316       .  A
N1883      N1884   1.316       .  A
N1883     Mn1913   2.182       .  S
N1884      C1892   1.347       .  A
N1885      N1886   1.324       .  A
N1885      N1887   1.316       .  A
N1886      C1893   1.354       .  A
N1887      N1888   1.315       .  A
N1888      C1893   1.348       .  A
N1889      N1890   1.326       .  A
N1890      C1892   1.358       .  A
Mn1891    Cl1915   2.556       .  S
N1894      N1895   1.317       .  A
N1894      N1900   1.316       .  A
N1894     Mn1902   2.185       .  S
N1895      C1903   1.348       .  A
N1896      N1898   1.316       .  A
N1896      N1897   1.323       .  A
N1897      C1904   1.354       .  A
N1898      N1899   1.316       .  A
N1899      C1904   1.349       .  A
N1900      N1901   1.325       .  A
N1900     Mn1914   2.226       .  S
N1901      C1903   1.357       .  A
Mn1902    Cl1915   2.545       .  S
N1905      N1906   1.319       .  A
N1905      N1911   1.316       .  A
N1906      C1916   1.350       .  A
N1907      N1908   1.324       .  A
N1907      N1909   1.316       .  A
N1908      C1917   1.355       .  A
N1909      N1910   1.316       .  A
N1909     Mn1913   2.189       .  S
N1910      C1917   1.349       .  A
N1911      N1912   1.325       .  A
N1912      C1916   1.357       .  A
Mn1914    Cl1915   2.557       .  S
N1918      N1919   1.320       .  A
N1918      N1924   1.316       .  A
N1918     Mn1947   2.197       .  S
N1919      C1926   1.350       .  A
N1920      N1922   1.316       .  A
N1920      N1921   1.324       .  A
N1920     Mn2638   2.211   1_545  S
N1921      C1927   1.354       .  A
N1922      N1923   1.316       .  A
N1922     Mn2649   2.190   1_545  S
N1923      C1927   1.349       .  A
N1924      N1925   1.324       .  A
N1924     Mn1936   2.223       .  S
N1925      C1926   1.356       .  A
N1928      N1934   1.316       .  A
N1928      N1929   1.318       .  A
N1928     Mn2660   2.190   1_545  S
N1929      C1937   1.349       .  A
N1930      N1931   1.325       .  A
N1930      N1932   1.316       .  A
N1931      C1938   1.355       .  A
N1932      N1933   1.315       .  A
N1932     Mn1958   2.185       .  S
N1933      C1938   1.348       .  A
N1934      N1935   1.324       .  A
N1934     Mn2287   2.220   1_546  S
N1935      C1937   1.356       .  A
Mn1936     N2622   2.219       .  S
Mn1936     N2285   2.224       .  S
Mn1936    Cl1960   2.556       .  S
N1939      N1940   1.317       .  A
N1939      N1945   1.316       .  A
N1939     Mn2649   2.186   1_545  S
N1940      C1948   1.348       .  A
N1941      N1943   1.317       .  A
N1941      N1942   1.324       .  A
N1941     Mn1959   2.218       .  S
N1942      C1949   1.355       .  A
N1943      N1944   1.315       .  A
N1943     Mn1947   2.187       .  S
N1944      C1949   1.348       .  A
N1945      N1946   1.324       .  A
N1945     Mn2661   2.221   1_545  S
N1946      C1948   1.356       .  A
Mn1947     N2624   2.190       .  S
Mn1947     N2641   2.196       .  S
Mn1947    Cl1960   2.544       .  S
N1950      N1951   1.319       .  A
N1950      N1956   1.316       .  A
N1950     Mn1958   2.191       .  S
N1951      C1961   1.349       .  A
N1952      N1953   1.325       .  A
N1952      N1954   1.316       .  A
N1952     Mn2310   2.224   1_546  S
N1953      C1962   1.357       .  A
N1954      N1955   1.316       .  A
N1954     Mn2660   2.184   1_545  S
N1955      C1962   1.348       .  A
N1956      N1957   1.324       .  A
N1957      C1961   1.356       .  A
Mn1958     N2630   2.189       .  S
Mn1958     N2656   2.186       .  S
Mn1959     N2647   2.220       .  S
Mn1959     N2303   2.222       .  S
Mn1959    Cl1960   2.556       .  S
C1963      C1964   1.407       .  A
C1963      C1968   1.405       .  A
C1964      C1965   1.402       .  A
C1964      H1977   1.083       .  S
C1965      C1966   1.406       .  A
C1965      H1978   1.083       .  S
C1966      C1967   1.411       .  A
C1966      C1969   1.500       .  S
C1967      C1968   1.400       .  A
C1967      H1979   1.079       .  S
C1968      H1980   1.083       .  S
C1969      C1970   1.351       .  D
C1969      H1981   1.085       .  S
C1970      C1971   1.493       .  S
C1970      H1982   1.082       .  S
C1971      C1972   1.403       .  A
C1971      C1976   1.409       .  A
C1972      C1973   1.397       .  A
C1972      H1983   1.084       .  S
C1973      C1974   1.406       .  A
C1973      H1984   1.083       .  S
C1974      C1975   1.409       .  A
C1975      C1976   1.405       .  A
C1975      H1985   1.083       .  S
C1976      H1986   1.081       .  S
C1987      C1988   1.407       .  A
C1987      C1992   1.406       .  A
C1988      C1989   1.399       .  A
C1988      H2001   1.083       .  S
C1989      C1990   1.405       .  A
C1989      H2002   1.083       .  S
C1990      C1991   1.410       .  A
C1990      C1993   1.494       .  S
C1991      C1992   1.402       .  A
C1991      H2003   1.080       .  S
C1992      H2004   1.083       .  S
C1993      C1994   1.351       .  D
C1993      H2005   1.082       .  S
C1994      C1995   1.498       .  S
C1994      H2006   1.084       .  S
C1995      C1996   1.406       .  A
C1995      C2000   1.411       .  A
C1996      C1997   1.400       .  A
C1996      H2007   1.083       .  S
C1997      C1998   1.406       .  A
C1997      H2008   1.083       .  S
C1998      C1999   1.406       .  A
C1999      C2000   1.401       .  A
C1999      H2009   1.083       .  S
C2000      H2010   1.079       .  S
C2011      C2012   1.407       .  A
C2011      C2016   1.405       .  A
C2012      C2013   1.396       .  A
C2012      H2025   1.083       .  S
C2013      C2014   1.403       .  A
C2013      H2026   1.084       .  S
C2014      C2015   1.413       .  A
C2014      C2017   1.495       .  S
C2015      C2016   1.402       .  A
C2015      H2027   1.079       .  S
C2016      H2028   1.083       .  S
C2017      C2018   1.349       .  D
C2017      H2029   1.083       .  S
C2018      C2019   1.493       .  S
C2018      H2030   1.082       .  S
C2019      C2020   1.403       .  A
C2019      C2024   1.411       .  A
C2020      C2021   1.396       .  A
C2020      H2031   1.084       .  S
C2021      C2022   1.406       .  A
C2021      H2032   1.083       .  S
C2022      C2023   1.406       .  A
C2023      C2024   1.402       .  A
C2023      H2033   1.083       .  S
C2024      H2034   1.080       .  S
C2035      C2036   1.407       .  A
C2035      C2040   1.407       .  A
C2036      C2037   1.397       .  A
C2036      H2049   1.083       .  S
C2037      C2038   1.403       .  A
C2037      H2050   1.083       .  S
C2038      C2039   1.412       .  A
C2038      C2041   1.495       .  S
C2039      C2040   1.404       .  A
C2039      H2051   1.080       .  S
C2040      H2052   1.083       .  S
C2041      C2042   1.349       .  D
C2041      H2053   1.085       .  S
C2042      C2043   1.493       .  S
C2042      H2054   1.083       .  S
C2043      C2044   1.402       .  A
C2043      C2048   1.411       .  A
C2044      C2045   1.397       .  A
C2044      H2055   1.083       .  S
C2045      C2046   1.408       .  A
C2045      H2056   1.083       .  S
C2046      C2047   1.407       .  A
C2047      C2048   1.404       .  A
C2047      H2057   1.083       .  S
C2048      H2058   1.081       .  S
C2059      C2060   1.406       .  A
C2059      C2064   1.407       .  A
C2060      C2061   1.394       .  A
C2060      H2073   1.083       .  S
C2061      C2062   1.401       .  A
C2061      H2074   1.084       .  S
C2062      C2063   1.410       .  A
C2062      C2065   1.489       .  S
C2063      C2064   1.403       .  A
C2063      H2075   1.081       .  S
C2064      H2076   1.083       .  S
C2065      C2066   1.346       .  D
C2065      H2077   1.085       .  S
C2066      C2067   1.488       .  S
C2066      H2078   1.084       .  S
C2067      C2068   1.401       .  A
C2067      C2072   1.410       .  A
C2068      C2069   1.396       .  A
C2068      H2079   1.084       .  S
C2069      C2070   1.409       .  A
C2069      H2080   1.083       .  S
C2070      C2071   1.405       .  A
C2071      C2072   1.402       .  A
C2071      H2081   1.083       .  S
C2072      H2082   1.081       .  S
C2083      C2084   1.409       .  A
C2083      C2088   1.406       .  A
C2084      C2085   1.398       .  A
C2084      H2097   1.083       .  S
C2085      C2086   1.402       .  A
C2085      H2098   1.084       .  S
C2086      C2087   1.411       .  A
C2086      C2089   1.492       .  S
C2087      C2088   1.405       .  A
C2087      H2099   1.081       .  S
C2088      H2100   1.083       .  S
C2089      C2090   1.348       .  D
C2089      H2101   1.084       .  S
C2090      C2091   1.494       .  S
C2090      H2102   1.085       .  S
C2091      C2092   1.403       .  A
C2091      C2096   1.411       .  A
C2092      C2093   1.396       .  A
C2092      H2103   1.084       .  S
C2093      C2094   1.407       .  A
C2093      H2104   1.083       .  S
C2094      C2095   1.406       .  A
C2095      C2096   1.403       .  A
C2095      H2105   1.083       .  S
C2096      H2106   1.080       .  S
C2107      N2108   1.355       .  A
C2107      N2112   1.361       .  A
C2107      C2434   1.490       .  S
N2108      C2109   1.355       .  A
C2109      N2110   1.360       .  A
C2109      C2199   1.466       .  S
N2110      C2111   1.362       .  A
C2111      N2112   1.364       .  A
C2111      C2277   1.472       .  S
C2113      N2114   1.360       .  A
C2113      N2118   1.354       .  A
C2113      C2445   1.487       .  S
N2114      C2115   1.363       .  A
C2115      N2116   1.360       .  A
C2115      C2187   1.468       .  S
N2116      C2117   1.358       .  A
C2117      N2118   1.355       .  A
C2117      C2289   1.459       .  S
C2119      N2120   1.355       .  A
C2119      N2124   1.362       .  A
C2119      C2421   1.490       .  S
N2120      C2121   1.354       .  A
C2121      N2122   1.357       .  A
C2121      C2244   1.462       .  S
N2122      C2123   1.360       .  A
C2123      N2124   1.365       .  A
C2123      C2312   1.469       .  S
C2125      N2126   1.355       .  A
C2125      N2130   1.359       .  A
C2125      C2410   1.488       .  S
N2126      C2127   1.356       .  A
C2127      N2128   1.358       .  A
C2127      C2300   1.463       .  S
N2128      C2129   1.361       .  A
C2129      N2130   1.362       .  A
C2129      C2232   1.465       .  S
C2131      N2132   1.360       .  A
C2131      N2136   1.354       .  A
C2131      C2386   1.487       .  S
N2132      C2133   1.364       .  A
C2133      N2134   1.360       .  A
C2133      C2222   1.467       .  S
N2134      C2135   1.358       .  A
C2135      N2136   1.354       .  A
C2135      C2255   1.459       .  S
C2137      N2138   1.360       .  A
C2137      N2142   1.356       .  A
C2137      C2397   1.489       .  S
N2138      C2139   1.363       .  A
C2139      N2140   1.361       .  A
C2139      C2267   1.468       .  S
N2140      C2141   1.359       .  A
C2141      N2142   1.355       .  A
C2141      C2210   1.466       .  S
C2143      N2144   1.356       .  A
C2143      N2148   1.360       .  A
C2143      C2362   1.489       .  S
N2144      C2145   1.357       .  A
C2145      N2146   1.360       .  A
C2145      C2268   1.465       .  S
N2146      C2147   1.361       .  A
C2147      N2148   1.363       .  A
C2147      C2288   1.470       .  S
C2149      N2150   1.359       .  A
C2149      N2154   1.356       .  A
C2149      C2373   1.488       .  S
N2150      C2151   1.362       .  A
C2151      N2152   1.360       .  A
C2151      C2254   1.466       .  S
N2152      C2153   1.358       .  A
C2153      N2154   1.356       .  A
C2153      C2278   1.463       .  S
C2155      N2156   1.360       .  A
C2155      N2160   1.357       .  A
C2155      C2349   1.491       .  S
N2156      C2157   1.362       .  A
C2157      N2158   1.360       .  A
C2157      C2233   1.467       .  S
N2158      C2159   1.358       .  A
C2159      N2160   1.359       .  A
C2159      C2198   1.466       .  S
C2161      N2162   1.357       .  A
C2161      N2166   1.358       .  A
C2161      C2338   1.489       .  S
N2162      C2163   1.358       .  A
C2163      N2164   1.359       .  A
C2163      C2243   1.465       .  S
N2164      C2165   1.360       .  A
C2165      N2166   1.361       .  A
C2165      C2188   1.465       .  S
C2167      N2168   1.361       .  A
C2167      N2172   1.357       .  A
C2167      C2314   1.493       .  S
N2168      C2169   1.364       .  A
C2169      N2170   1.360       .  A
C2169      C2209   1.468       .  S
N2170      C2171   1.358       .  A
C2171      N2172   1.357       .  A
C2171      C2313   1.464       .  S
C2173      N2174   1.361       .  A
C2173      N2178   1.357       .  A
C2173      C2325   1.494       .  S
N2174      C2175   1.365       .  A
C2175      N2176   1.361       .  A
C2175      C2299   1.470       .  S
N2176      C2177   1.359       .  A
C2177      N2178   1.358       .  A
C2177      C2223   1.467       .  S
N2179      N2180   1.318       .  A
N2179      N2185   1.316       .  A
N2179     Mn2208   2.187       .  S
N2180      C2187   1.348       .  A
N2181      N2183   1.317       .  A
N2181      N2182   1.324       .  A
N2181     Mn2548   2.219       .  S
N2182      C2188   1.355       .  A
N2183      N2184   1.317       .  A
N2183     Mn2208   2.188       .  S
N2184      C2188   1.349       .  A
N2185      N2186   1.324       .  A
N2185     Mn2548   2.224       .  S
N2186      C2187   1.356       .  A
N2189      N2195   1.315       .  A
N2189      N2190   1.316       .  A
N2189     Mn2219   2.176       .  S
N2190      C2198   1.347       .  A
N2191      N2192   1.325       .  A
N2191      N2193   1.316       .  A
N2191     Mn2197   2.218       .  S
N2192      C2199   1.356       .  A
N2193      N2194   1.316       .  A
N2193     Mn2219   2.190       .  S
N2194      C2199   1.349       .  A
N2195      N2196   1.326       .  A
N2195     Mn2197   2.226       .  S
N2196      C2198   1.358       .  A
Mn2197     N2532   2.214   1_554  S
Mn2197     N2536   2.222   1_554  S
Mn2197    Cl2221   2.557       .  S
N2200      N2201   1.318       .  A
N2200      N2206   1.316       .  A
N2200     Mn2208   2.187       .  S
N2201      C2209   1.348       .  A
N2202      N2204   1.316       .  A
N2202      N2203   1.325       .  A
N2202     Mn2571   2.220       .  S
N2203      C2210   1.355       .  A
N2204      N2205   1.316       .  A
N2204     Mn2208   2.190       .  S
N2205      C2210   1.349       .  A
N2206      N2207   1.324       .  A
N2206     Mn2571   2.225       .  S
N2207      C2209   1.357       .  A
Mn2208    Cl2572   2.545       .  S
N2211      N2212   1.317       .  A
N2211      N2217   1.316       .  A
N2211     Mn2219   2.179       .  S
N2212      C2222   1.347       .  A
N2213      N2214   1.326       .  A
N2213      N2215   1.316       .  A
N2213     Mn2220   2.225       .  S
N2214      C2223   1.357       .  A
N2215      N2216   1.316       .  A
N2215     Mn2219   2.186       .  S
N2216      C2223   1.348       .  A
N2217      N2218   1.325       .  A
N2217     Mn2220   2.228       .  S
N2218      C2222   1.357       .  A
Mn2219    Cl2221   2.539       .  S
Mn2220     N2553   2.222   1_554  S
Mn2220     N2557   2.224   1_554  S
Mn2220    Cl2221   2.557       .  S
Cl2221    Mn2559   2.542   1_554  S
N2224      N2225   1.317       .  A
N2224      N2230   1.316       .  A
N2225      C2232   1.348       .  A
N2226      N2228   1.317       .  A
N2226      N2227   1.324       .  A
N2226     Mn2242   2.223       .  S
N2227      C2233   1.356       .  A
N2228      N2229   1.318       .  A
N2228     Mn2253   2.190       .  S
N2229      C2233   1.349       .  A
N2230      N2231   1.324       .  A
N2231      C2232   1.356       .  A
N2234      N2240   1.316       .  A
N2234      N2235   1.316       .  A
N2234     Mn2264   2.182       .  S
N2235      C2243   1.347       .  A
N2236      N2237   1.324       .  A
N2236      N2238   1.316       .  A
N2237      C2244   1.355       .  A
N2238      N2239   1.315       .  A
N2239      C2244   1.348       .  A
N2240      N2241   1.325       .  A
N2240     Mn2593   2.221       .  S
N2241      C2243   1.357       .  A
Mn2242     N2591   2.224   1_554  S
Mn2242    Cl2266   2.555       .  S
N2245      N2246   1.317       .  A
N2245      N2251   1.316       .  A
N2245     Mn2253   2.186       .  S
N2246      C2254   1.348       .  A
N2247      N2249   1.316       .  A
N2247      N2248   1.323       .  A
N2248      C2255   1.353       .  A
N2249      N2250   1.316       .  A
N2250      C2255   1.349       .  A
N2251      N2252   1.324       .  A
N2251     Mn2265   2.220       .  S
N2252      C2254   1.356       .  A
Mn2253    Cl2266   2.542       .  S
N2256      N2257   1.318       .  A
N2256      N2262   1.315       .  A
N2257      C2267   1.349       .  A
N2258      N2259   1.325       .  A
N2258      N2260   1.316       .  A
N2258     Mn2616   2.216       .  S
N2259      C2268   1.356       .  A
N2260      N2261   1.316       .  A
N2260     Mn2264   2.189       .  S
N2261      C2268   1.349       .  A
N2262      N2263   1.324       .  A
N2263      C2267   1.356       .  A
Mn2264    Cl2617   2.542       .  S
Mn2265     N2609   2.218   1_554  S
Mn2265    Cl2266   2.555       .  S
Cl2266    Mn2615   2.538   1_554  S
N2269      N2270   1.320       .  A
N2269      N2275   1.316       .  A
N2269     Mn2298   2.195       .  S
N2270      C2277   1.350       .  A
N2271      N2273   1.316       .  A
N2271      N2272   1.324       .  A
N2272      C2278   1.356       .  A
N2273      N2274   1.316       .  A
N2274      C2278   1.348       .  A
N2275      N2276   1.325       .  A
N2275     Mn2287   2.224       .  S
N2276      C2277   1.356       .  A
N2279      N2285   1.316       .  A
N2279      N2280   1.318       .  A
N2280      C2288   1.349       .  A
N2281      N2282   1.324       .  A
N2281      N2283   1.316       .  A
N2281     Mn2638   2.210       .  S
N2282      C2289   1.355       .  A
N2283      N2284   1.315       .  A
N2283     Mn2309   2.183       .  S
N2284      C2289   1.348       .  A
N2285      N2286   1.325       .  A
N2286      C2288   1.357       .  A
Mn2287     N2632   2.219   1_554  S
Mn2287    Cl2311   2.556       .  S
N2290      N2291   1.318       .  A
N2290      N2296   1.316       .  A
N2291      C2299   1.348       .  A
N2292      N2294   1.317       .  A
N2292      N2293   1.325       .  A
N2292     Mn2310   2.220       .  S
N2293      C2300   1.356       .  A
N2294      N2295   1.315       .  A
N2294     Mn2298   2.185       .  S
N2295      C2300   1.347       .  A
N2296      N2297   1.325       .  A
N2297      C2299   1.358       .  A
Mn2298    Cl2311   2.543       .  S
N2301      N2302   1.319       .  A
N2301      N2307   1.316       .  A
N2301     Mn2309   2.187       .  S
N2302      C2312   1.348       .  A
N2303      N2304   1.325       .  A
N2303      N2305   1.317       .  A
N2304      C2313   1.356       .  A
N2305      N2306   1.316       .  A
N2306      C2313   1.348       .  A
N2307      N2308   1.324       .  A
N2307     Mn2661   2.224       .  S
N2308      C2312   1.357       .  A
Mn2309    Cl2662   2.541       .  S
Mn2310     N2658   2.215   1_554  S
Mn2310    Cl2311   2.556       .  S
Cl2311    Mn2660   2.542   1_554  S
C2314      C2315   1.408       .  A
C2314      C2319   1.407       .  A
C2315      C2316   1.399       .  A
C2315      H2328   1.083       .  S
C2316      C2317   1.404       .  A
C2316      H2329   1.083       .  S
C2317      C2318   1.411       .  A
C2317      C2320   1.497       .  S
C2318      C2319   1.405       .  A
C2318      H2330   1.080       .  S
C2319      H2331   1.083       .  S
C2320      C2321   1.351       .  D
C2320      H2332   1.084       .  S
C2321      C2322   1.497       .  S
C2321      H2333   1.084       .  S
C2322      C2323   1.403       .  A
C2322      C2327   1.411       .  A
C2323      C2324   1.399       .  A
C2323      H2334   1.083       .  S
C2324      C2325   1.408       .  A
C2324      H2335   1.083       .  S
C2325      C2326   1.408       .  A
C2326      C2327   1.405       .  A
C2326      H2336   1.083       .  S
C2327      H2337   1.081       .  S
C2338      C2339   1.406       .  A
C2338      C2343   1.407       .  A
C2339      C2340   1.398       .  A
C2339      H2352   1.083       .  S
C2340      C2341   1.405       .  A
C2340      H2353   1.083       .  S
C2341      C2342   1.411       .  A
C2341      C2344   1.496       .  S
C2342      C2343   1.403       .  A
C2342      H2354   1.080       .  S
C2343      H2355   1.083       .  S
C2344      C2345   1.352       .  D
C2344      H2356   1.082       .  S
C2345      C2346   1.499       .  S
C2345      H2357   1.083       .  S
C2346      C2347   1.406       .  A
C2346      C2351   1.412       .  A
C2347      C2348   1.400       .  A
C2347      H2358   1.083       .  S
C2348      C2349   1.407       .  A
C2348      H2359   1.083       .  S
C2349      C2350   1.406       .  A
C2350      C2351   1.402       .  A
C2350      H2360   1.083       .  S
C2351      H2361   1.079       .  S
C2362      C2363   1.407       .  A
C2362      C2367   1.405       .  A
C2363      C2364   1.398       .  A
C2363      H2376   1.083       .  S
C2364      C2365   1.405       .  A
C2364      H2377   1.084       .  S
C2365      C2366   1.413       .  A
C2365      C2368   1.498       .  S
C2366      C2367   1.402       .  A
C2366      H2378   1.079       .  S
C2367      H2379   1.083       .  S
C2368      C2369   1.349       .  D
C2368      H2380   1.084       .  S
C2369      C2370   1.493       .  S
C2369      H2381   1.082       .  S
C2370      C2371   1.403       .  A
C2370      C2375   1.411       .  A
C2371      C2372   1.396       .  A
C2371      H2382   1.084       .  S
C2372      C2373   1.406       .  A
C2372      H2383   1.083       .  S
C2373      C2374   1.407       .  A
C2374      C2375   1.403       .  A
C2374      H2384   1.083       .  S
C2375      H2385   1.080       .  S
C2386      C2387   1.408       .  A
C2386      C2391   1.405       .  A
C2387      C2388   1.396       .  A
C2387      H2400   1.083       .  S
C2388      C2389   1.402       .  A
C2388      H2401   1.083       .  S
C2389      C2390   1.412       .  A
C2389      C2392   1.494       .  S
C2390      C2391   1.403       .  A
C2390      H2402   1.080       .  S
C2391      H2403   1.083       .  S
C2392      C2393   1.347       .  D
C2392      H2404   1.085       .  S
C2393      C2394   1.490       .  S
C2393      H2405   1.083       .  S
C2394      C2395   1.401       .  A
C2394      C2399   1.411       .  A
C2395      C2396   1.395       .  A
C2395      H2406   1.084       .  S
C2396      C2397   1.407       .  A
C2396      H2407   1.083       .  S
C2397      C2398   1.407       .  A
C2398      C2399   1.404       .  A
C2398      H2408   1.083       .  S
C2399      H2409   1.081       .  S
C2410      C2411   1.407       .  A
C2410      C2415   1.406       .  A
C2411      C2412   1.397       .  A
C2411      H2424   1.083       .  S
C2412      C2413   1.403       .  A
C2412      H2425   1.084       .  S
C2413      C2414   1.411       .  A
C2413      C2416   1.494       .  S
C2414      C2415   1.403       .  A
C2414      H2426   1.080       .  S
C2415      H2427   1.083       .  S
C2416      C2417   1.349       .  D
C2416      H2428   1.083       .  S
C2417      C2418   1.495       .  S
C2417      H2429   1.084       .  S
C2418      C2419   1.402       .  A
C2418      C2423   1.412       .  A
C2419      C2420   1.396       .  A
C2419      H2430   1.084       .  S
C2420      C2421   1.408       .  A
C2420      H2431   1.083       .  S
C2421      C2422   1.406       .  A
C2422      C2423   1.404       .  A
C2422      H2432   1.083       .  S
C2423      H2433   1.080       .  S
C2434      C2435   1.407       .  A
C2434      C2439   1.406       .  A
C2435      C2436   1.397       .  A
C2435      H2448   1.083       .  S
C2436      C2437   1.403       .  A
C2436      H2449   1.084       .  S
C2437      C2438   1.411       .  A
C2437      C2440   1.493       .  S
C2438      C2439   1.404       .  A
C2438      H2450   1.080       .  S
C2439      H2451   1.083       .  S
C2440      C2441   1.349       .  D
C2440      H2452   1.082       .  S
C2441      C2442   1.497       .  S
C2441      H2453   1.084       .  S
C2442      C2443   1.404       .  A
C2442      C2447   1.413       .  A
C2443      C2444   1.398       .  A
C2443      H2454   1.084       .  S
C2444      C2445   1.407       .  A
C2444      H2455   1.083       .  S
C2445      C2446   1.405       .  A
C2446      C2447   1.402       .  A
C2446      H2456   1.083       .  S
C2447      H2457   1.078       .  S
C2458      N2459   1.356       .  A
C2458      N2463   1.362       .  A
C2458      C2785   1.490       .  S
N2459      C2460   1.356       .  A
C2460      N2461   1.360       .  A
C2460      C2550   1.468       .  S
N2461      C2462   1.362       .  A
C2462      N2463   1.365       .  A
C2462      C2628   1.474       .  S
C2464      N2465   1.359       .  A
C2464      N2469   1.354       .  A
C2464      C2796   1.486       .  S
N2465      C2466   1.363       .  A
C2466      N2467   1.361       .  A
C2466      C2538   1.467       .  S
N2467      C2468   1.359       .  A
C2468      N2469   1.356       .  A
C2468      C2640   1.463       .  S
C2470      N2471   1.354       .  A
C2470      N2475   1.360       .  A
C2470      C2772   1.488       .  S
N2471      C2472   1.355       .  A
C2472      N2473   1.358       .  A
C2472      C2595   1.461       .  S
N2473      C2474   1.361       .  A
C2474      N2475   1.363       .  A
C2474      C2663   1.467       .  S
C2476      N2477   1.355       .  A
C2476      N2481   1.360       .  A
C2476      C2761   1.487       .  S
N2477      C2478   1.356       .  A
C2478      N2479   1.358       .  A
C2478      C2651   1.463       .  S
N2479      C2480   1.360       .  A
C2480      N2481   1.363       .  A
C2480      C2583   1.467       .  S
C2482      N2483   1.361       .  A
C2482      N2487   1.355       .  A
C2482      C2737   1.491       .  S
N2483      C2484   1.365       .  A
C2484      N2485   1.360       .  A
C2484      C2573   1.467       .  S
N2485      C2486   1.357       .  A
C2486      N2487   1.355       .  A
C2486      C2606   1.462       .  S
C2488      N2489   1.359       .  A
C2488      N2493   1.358       .  A
C2488      C2748   1.492       .  S
N2489      C2490   1.362       .  A
C2490      N2491   1.359       .  A
C2490      C2618   1.468       .  S
N2491      C2492   1.359       .  A
C2492      N2493   1.359       .  A
C2492      C2561   1.467       .  S
C2494      N2495   1.356       .  A
C2494      N2499   1.361       .  A
C2494      C2713   1.491       .  S
N2495      C2496   1.356       .  A
C2496      N2497   1.359       .  A
C2496      C2619   1.465       .  S
N2497      C2498   1.361       .  A
C2498      N2499   1.364       .  A
C2498      C2639   1.469       .  S
C2500      N2501   1.360       .  A
C2500      N2505   1.356       .  A
C2500      C2724   1.490       .  S
N2501      C2502   1.363       .  A
C2502      N2503   1.361       .  A
C2502      C2605   1.469       .  S
N2503      C2504   1.360       .  A
C2504      N2505   1.356       .  A
C2504      C2629   1.465       .  S
C2506      N2507   1.359       .  A
C2506      N2511   1.359       .  A
C2506      C2700   1.492       .  S
N2507      C2508   1.360       .  A
C2508      N2509   1.361       .  A
C2508      C2584   1.469       .  S
N2509      C2510   1.360       .  A
C2510      N2511   1.361       .  A
C2510      C2549   1.471       .  S
C2512      N2513   1.357       .  A
C2512      N2517   1.359       .  A
C2512      C2689   1.491       .  S
N2513      C2514   1.358       .  A
C2514      N2515   1.357       .  A
C2514      C2594   1.463       .  S
N2515      C2516   1.359       .  A
C2516      N2517   1.362       .  A
C2516      C2539   1.463       .  S
C2518      N2519   1.359       .  A
C2518      N2523   1.357       .  A
C2518      C2665   1.491       .  S
N2519      C2520   1.363       .  A
C2520      N2521   1.361       .  A
C2520      C2560   1.468       .  S
N2521      C2522   1.359       .  A
C2522      N2523   1.358       .  A
C2522      C2664   1.466       .  S
C2524      N2525   1.361       .  A
C2524      N2529   1.357       .  A
C2524      C2676   1.492       .  S
N2525      C2526   1.364       .  A
C2526      N2527   1.361       .  A
C2526      C2650   1.470       .  S
N2527      C2528   1.359       .  A
C2528      N2529   1.357       .  A
C2528      C2574   1.467       .  S
N2530      N2531   1.317       .  A
N2530      N2536   1.316       .  A
N2530     Mn2559   2.187       .  S
N2531      C2538   1.348       .  A
N2532      N2534   1.316       .  A
N2532      N2533   1.323       .  A
N2533      C2539   1.355       .  A
N2534      N2535   1.318       .  A
N2534     Mn2559   2.189       .  S
N2535      C2539   1.349       .  A
N2536      N2537   1.325       .  A
N2537      C2538   1.356       .  A
N2540      N2546   1.316       .  A
N2540      N2541   1.317       .  A
N2540     Mn2570   2.187       .  S
N2541      C2549   1.348       .  A
N2542      N2543   1.325       .  A
N2542      N2544   1.316       .  A
N2542     Mn2548   2.221       .  S
N2543      C2550   1.356       .  A
N2544      N2545   1.317       .  A
N2544     Mn2570   2.190       .  S
N2545      C2550   1.349       .  A
N2546      N2547   1.326       .  A
N2546     Mn2548   2.230       .  S
N2547      C2549   1.358       .  A
Mn2548    Cl2572   2.556       .  S
N2551      N2552   1.317       .  A
N2551      N2557   1.316       .  A
N2551     Mn2559   2.185       .  S
N2552      C2560   1.348       .  A
N2553      N2555   1.317       .  A
N2553      N2554   1.324       .  A
N2554      C2561   1.356       .  A
N2555      N2556   1.318       .  A
N2555     Mn2559   2.192       .  S
N2556      C2561   1.349       .  A
N2557      N2558   1.325       .  A
N2558      C2560   1.357       .  A
N2562      N2563   1.318       .  A
N2562      N2568   1.316       .  A
N2562     Mn2570   2.186       .  S
N2563      C2573   1.348       .  A
N2564      N2565   1.326       .  A
N2564      N2566   1.317       .  A
N2564     Mn2571   2.223       .  S
N2565      C2574   1.357       .  A
N2566      N2567   1.316       .  A
N2566     Mn2570   2.189       .  S
N2567      C2574   1.348       .  A
N2568      N2569   1.324       .  A
N2568     Mn2571   2.222       .  S
N2569      C2573   1.356       .  A
Mn2570    Cl2572   2.542       .  S
Mn2571    Cl2572   2.556       .  S
N2575      N2576   1.318       .  A
N2575      N2581   1.316       .  A
N2576      C2583   1.349       .  A
N2577      N2579   1.317       .  A
N2577      N2578   1.324       .  A
N2577     Mn2593   2.219       .  S
N2578      C2584   1.355       .  A
N2579      N2580   1.319       .  A
N2579     Mn2604   2.197       .  S
N2580      C2584   1.351       .  A
N2581      N2582   1.324       .  A
N2582      C2583   1.356       .  A
N2585      N2591   1.315       .  A
N2585      N2586   1.314       .  A
N2585     Mn2615   2.174       .  S
N2586      C2594   1.345       .  A
N2587      N2588   1.324       .  A
N2587      N2589   1.316       .  A
N2588      C2595   1.355       .  A
N2589      N2590   1.315       .  A
N2590      C2595   1.347       .  A
N2591      N2592   1.326       .  A
N2592      C2594   1.358       .  A
Mn2593    Cl2617   2.557       .  S
N2596      N2597   1.318       .  A
N2596      N2602   1.316       .  A
N2596     Mn2604   2.188       .  S
N2597      C2605   1.348       .  A
N2598      N2600   1.316       .  A
N2598      N2599   1.324       .  A
N2599      C2606   1.355       .  A
N2600      N2601   1.315       .  A
N2601      C2606   1.348       .  A
N2602      N2603   1.325       .  A
N2602     Mn2616   2.228       .  S
N2603      C2605   1.357       .  A
Mn2604    Cl2617   2.544       .  S
N2607      N2608   1.317       .  A
N2607      N2613   1.315       .  A
N2608      C2618   1.348       .  A
N2609      N2610   1.325       .  A
N2609      N2611   1.315       .  A
N2610      C2619   1.356       .  A
N2611      N2612   1.316       .  A
N2611     Mn2615   2.185       .  S
N2612      C2619   1.348       .  A
N2613      N2614   1.325       .  A
N2614      C2618   1.357       .  A
Mn2616    Cl2617   2.556       .  S
N2620      N2621   1.320       .  A
N2620      N2626   1.316       .  A
N2620     Mn2649   2.192       .  S
N2621      C2628   1.350       .  A
N2622      N2624   1.317       .  A
N2622      N2623   1.325       .  A
N2623      C2629   1.356       .  A
N2624      N2625   1.316       .  A
N2625      C2629   1.349       .  A
N2626      N2627   1.325       .  A
N2626     Mn2638   2.231       .  S
N2627      C2628   1.357       .  A
N2630      N2636   1.316       .  A
N2630      N2631   1.319       .  A
N2631      C2639   1.349       .  A
N2632      N2633   1.325       .  A
N2632      N2634   1.317       .  A
N2633      C2640   1.356       .  A
N2634      N2635   1.314       .  A
N2634     Mn2660   2.182       .  S
N2635      C2640   1.347       .  A
N2636      N2637   1.324       .  A
N2637      C2639   1.356       .  A
Mn2638    Cl2662   2.555       .  S
N2641      N2642   1.319       .  A
N2641      N2647   1.316       .  A
N2642      C2650   1.350       .  A
N2643      N2645   1.317       .  A
N2643      N2644   1.325       .  A
N2643     Mn2661   2.217       .  S
N2644      C2651   1.355       .  A
N2645      N2646   1.316       .  A
N2645     Mn2649   2.187       .  S
N2646      C2651   1.348       .  A
N2647      N2648   1.324       .  A
N2648      C2650   1.356       .  A
Mn2649    Cl2662   2.542       .  S
N2652      N2653   1.319       .  A
N2652      N2658   1.316       .  A
N2652     Mn2660   2.193       .  S
N2653      C2663   1.350       .  A
N2654      N2655   1.325       .  A
N2654      N2656   1.316       .  A
N2655      C2664   1.357       .  A
N2656      N2657   1.316       .  A
N2657      C2664   1.348       .  A
N2658      N2659   1.323       .  A
N2659      C2663   1.355       .  A
Mn2661    Cl2662   2.555       .  S
C2665      C2666   1.407       .  A
C2665      C2670   1.408       .  A
C2666      C2667   1.398       .  A
C2666      H2679   1.083       .  S
C2667      C2668   1.403       .  A
C2667      H2680   1.083       .  S
C2668      C2669   1.410       .  A
C2668      C2671   1.494       .  S
C2669      C2670   1.404       .  A
C2669      H2681   1.081       .  S
C2670      H2682   1.083       .  S
C2671      C2672   1.350       .  D
C2671      H2683   1.084       .  S
C2672      C2673   1.496       .  S
C2672      H2684   1.085       .  S
C2673      C2674   1.404       .  A
C2673      C2678   1.411       .  A
C2674      C2675   1.399       .  A
C2674      H2685   1.083       .  S
C2675      C2676   1.408       .  A
C2675      H2686   1.083       .  S
C2676      C2677   1.407       .  A
C2677      C2678   1.404       .  A
C2677      H2687   1.083       .  S
C2678      H2688   1.080       .  S
C2689      C2690   1.407       .  A
C2689      C2694   1.407       .  A
C2690      C2691   1.398       .  A
C2690      H2703   1.083       .  S
C2691      C2692   1.404       .  A
C2691      H2704   1.083       .  S
C2692      C2693   1.410       .  A
C2692      C2695   1.495       .  S
C2693      C2694   1.403       .  A
C2693      H2705   1.081       .  S
C2694      H2706   1.083       .  S
C2695      C2696   1.351       .  D
C2695      H2707   1.084       .  S
C2696      C2697   1.496       .  S
C2696      H2708   1.084       .  S
C2697      C2698   1.405       .  A
C2697      C2702   1.410       .  A
C2698      C2699   1.400       .  A
C2698      H2709   1.083       .  S
C2699      C2700   1.407       .  A
C2699      H2710   1.083       .  S
C2700      C2701   1.408       .  A
C2701      C2702   1.403       .  A
C2701      H2711   1.083       .  S
C2702      H2712   1.081       .  S
C2713      C2714   1.408       .  A
C2713      C2718   1.407       .  A
C2714      C2715   1.397       .  A
C2714      H2727   1.083       .  S
C2715      C2716   1.403       .  A
C2715      H2728   1.084       .  S
C2716      C2717   1.411       .  A
C2716      C2719   1.493       .  S
C2717      C2718   1.404       .  A
C2717      H2729   1.081       .  S
C2718      H2730   1.083       .  S
C2719      C2720   1.349       .  D
C2719      H2731   1.084       .  S
C2720      C2721   1.494       .  S
C2720      H2732   1.084       .  S
C2721      C2722   1.403       .  A
C2721      C2726   1.411       .  A
C2722      C2723   1.398       .  A
C2722      H2733   1.084       .  S
C2723      C2724   1.408       .  A
C2723      H2734   1.083       .  S
C2724      C2725   1.407       .  A
C2725      C2726   1.403       .  A
C2725      H2735   1.083       .  S
C2726      H2736   1.081       .  S
C2737      C2738   1.408       .  A
C2737      C2742   1.407       .  A
C2738      C2739   1.397       .  A
C2738      H2751   1.083       .  S
C2739      C2740   1.402       .  A
C2739      H2752   1.083       .  S
C2740      C2741   1.411       .  A
C2740      C2743   1.494       .  S
C2741      C2742   1.405       .  A
C2741      H2753   1.081       .  S
C2742      H2754   1.083       .  S
C2743      C2744   1.349       .  D
C2743      H2755   1.084       .  S
C2744      C2745   1.496       .  S
C2744      H2756   1.085       .  S
C2745      C2746   1.404       .  A
C2745      C2750   1.411       .  A
C2746      C2747   1.399       .  A
C2746      H2757   1.083       .  S
C2747      C2748   1.407       .  A
C2747      H2758   1.083       .  S
C2748      C2749   1.408       .  A
C2749      C2750   1.404       .  A
C2749      H2759   1.083       .  S
C2750      H2760   1.081       .  S
C2761      C2762   1.406       .  A
C2761      C2766   1.406       .  A
C2762      C2763   1.397       .  A
C2762      H2775   1.083       .  S
C2763      C2764   1.404       .  A
C2763      H2776   1.084       .  S
C2764      C2765   1.412       .  A
C2764      C2767   1.495       .  S
C2765      C2766   1.403       .  A
C2765      H2777   1.080       .  S
C2766      H2778   1.083       .  S
C2767      C2768   1.349       .  D
C2767      H2779   1.083       .  S
C2768      C2769   1.496       .  S
C2768      H2780   1.083       .  S
C2769      C2770   1.404       .  A
C2769      C2774   1.412       .  A
C2770      C2771   1.397       .  A
C2770      H2781   1.084       .  S
C2771      C2772   1.407       .  A
C2771      H2782   1.083       .  S
C2772      C2773   1.405       .  A
C2773      C2774   1.402       .  A
C2773      H2783   1.083       .  S
C2774      H2784   1.079       .  S
C2785      C2786   1.407       .  A
C2785      C2790   1.406       .  A
C2786      C2787   1.398       .  A
C2786      H2799   1.083       .  S
C2787      C2788   1.403       .  A
C2787      H2800   1.084       .  S
C2788      C2789   1.411       .  A
C2788      C2791   1.494       .  S
C2789      C2790   1.404       .  A
C2789      H2801   1.081       .  S
C2790      H2802   1.083       .  S
C2791      C2792   1.349       .  D
C2791      H2803   1.085       .  S
C2792      C2793   1.494       .  S
C2792      H2804   1.085       .  S
C2793      C2794   1.404       .  A
C2793      C2798   1.411       .  A
C2794      C2795   1.399       .  A
C2794      H2805   1.084       .  S
C2795      C2796   1.407       .  A
C2795      H2806   1.083       .  S
C2796      C2797   1.405       .  A
C2797      C2798   1.402       .  A
C2797      H2807   1.083       .  S
C2798      H2808   1.081       .  S
