geometry optimzed in LAMMPS
_audit_creation_date              2020-12-01 
_audit_creation_method            'lammps2cif' 
_symmetry_space_group_name_H-M    'P1' 
_symmetry_Int_Tables_number       1 
_symmetry_cell_setting            triclinic 
loop_ 
_symmetry_equiv_pos_as_xyz 
  x,y,z 
_cell_length_a                    37.77591534 
_cell_length_b                    40.572572846371585 
_cell_length_c                    39.19723903778815 
_cell_angle_alpha                 89.99622343481526 
_cell_angle_beta                  90.00560348342573 
_cell_angle_gamma                 81.35081245326563 
loop_ 
_atom_site_label 
_atom_site_type_symbol 
_atom_site_fract_x 
_atom_site_fract_y 
_atom_site_fract_z 
_atom_site_charge 
C1          C  0.44573899  0.44474190  0.29849765    -0.00700
C2          C  0.23061810  0.26084008  0.29814416    -0.00700
C3          C  0.43488851  0.26454424  0.49125899    -0.00700
C4          C  0.24025470  0.44204507  0.49097542    -0.00700
C5          C  0.47914904  0.01083097  0.23680297    -0.00700
C6          C  0.99284090  0.19061634  0.03996019    -0.00700
C7          C  0.18217776  0.01577380  0.03981561    -0.00700
C8          C  0.19614084  0.19508025  0.23660315    -0.00700
Zr9        Zr  0.42474557  0.44534580  0.47468108     2.17500
O10         O  0.37899289  0.43881359  0.43212587    -0.49500
O11         O  0.43182439  0.38472816  0.47816884    -0.72700
O12         O  0.44571252  0.44407386  0.41549967    -0.79500
O13         O  0.35297596  0.46185931  0.04531699    -0.81300
O14         O  0.49846469  0.46444886  0.41130017    -0.76900
O15         O  0.36250180  0.44640185  0.48943954    -0.88500
O16         O  0.47365747  0.36648124  0.01922507    -0.74500
O17         O  0.48755993  0.42980100  0.48227824    -0.84000
O18         O  0.43200064  0.42992373  0.03354434    -0.83700
O19         O  0.44969955  0.49465801  0.46012575    -0.70400
O20         O  0.39927529  0.49290323  0.00749263    -0.82600
Zr21       Zr  0.49735208  0.51109097  0.05976509     2.26400
Zr22       Zr  0.01312540  0.47834382  0.46934505     2.06300
Zr23       Zr  0.40845212  0.47815870  0.06616044     2.10000
Zr24       Zr  0.49479587  0.41502019  0.04155565     1.78800
O25         O  0.36294817  0.02299709  0.08545617    -0.91400
O26         O  0.04794250  0.38028573  0.01972210    -0.39200
O27         O  0.47140491  0.46273646  0.07451187    -0.75800
O28         O  0.02275757  0.46277527  0.02803789    -0.94500
O29         O  0.48830671  0.02712414  0.00157353    -0.87800
O30         O  0.43432943  0.02719635  0.05301582    -0.90600
C31         C  0.44965746  0.36211483  0.49682649     1.03100
C32         C  0.34249954  0.45235647  0.01629238     1.16100
C33         C  0.47179318  0.45274189  0.39836105     1.06800
O34         O  0.06137817  0.43631523  0.44907223    -0.92800
O35         O  0.06868215  0.49564003  0.48914181    -0.88500
O36         O  0.05946959  0.01220871  0.04342824    -0.81700
C37         C  0.07889074  0.50708751  0.01734561     1.13500
O38         O  0.37558287  0.04896032  0.45481297    -0.94800
Zr39       Zr  0.42528949  0.04141773  0.99424981     1.88900
O40         O  0.48984174  0.07196900  0.05493763    -0.71400
O41         O  0.02666599  0.02254260  0.43068449    -0.50700
O42         O  0.43712016  0.07293220  0.44385089    -0.95400
O43         O  0.37443866  0.07756417  0.01921872    -0.52600
O44         O  0.45049197  0.08932894  0.01247499    -0.71900
C45         C  0.47322784  0.09428598  0.03523681     1.00400
O46         O  0.03405698  0.52549905  0.10738348    -0.60700
O47         O  0.38944383  0.43956820  0.10761059    -0.55500
O48         O  0.48123328  0.00675275  0.11954465    -0.92200
O49         O  0.42699871  0.48803095  0.12414672    -0.90700
O50         O  0.47763065  0.38500272  0.09123994    -0.91000
O51         O  0.04245058  0.40497468  0.08388430    -0.89800
C52         C  0.45550661  0.99788121  0.13699359     1.19300
H53         H  0.41921164  0.41179427  0.03932090     0.35200
H54         H  0.04784306  0.45588261  0.03277748     0.46100
H55         H  0.42541269  0.04545306  0.06801483     0.39600
H56         H  0.44434360  0.00167275  0.43764441     0.36100
H57         H  0.04720061  0.35808435  0.02995882     0.27800
H58         H  0.04210813  0.01058174  0.41282659     0.33800
H59         H  0.46331503  0.07295383  0.44380986     0.39700
H60         H  0.49066744  0.36206774  0.08868661     0.34200
H61         H  0.36480757  0.44952603  0.11407987     0.33000
H62         H  0.35396164  0.01476993  0.10709294     0.34700
H63         H  0.38375304  0.08728537  0.03992056     0.33700
H64         H  0.03849831  0.42467513  0.09909189     0.37700
H65         H  0.05385926  0.50661148  0.10953708     0.30400
H66         H  0.38785165  0.41800977  0.41959121     0.34600
H67         H  0.36756204  0.07331742  0.45352391     0.37500
H68         H  0.38645052  0.41935633  0.09444185     0.30100
H69         H  0.04557820  0.54459170  0.09972953     0.43000
H70         H  0.07389418  0.42730962  0.47003659     0.33000
H71         H  0.04379117  0.37716360  0.49529932     0.40700
H72         H  0.35859738  0.06212503  0.02793052     0.32500
H73         H  0.50635007  0.02813522  0.41729577     0.32600
H74         H  0.37915972  0.45703223  0.41532634     0.32800
Zr75       Zr  0.41920102  0.27058075  0.30495063     2.17500
O76         O  0.37682622  0.31864567  0.32356016    -0.49500
O77         O  0.42556841  0.26512209  0.36729806    -0.72700
O78         O  0.35711542  0.25918657  0.30646358    -0.79500
O79         O  0.48815209  0.32779026  0.27864006    -0.81300
O80         O  0.35415610  0.20735388  0.28549268    -0.76900
O81         O  0.43184773  0.32791135  0.29945213    -0.88500
O82         O  0.46742787  0.22063804  0.38033199    -0.74500
O83         O  0.43071047  0.21244702  0.31705513    -0.84000
O84         O  0.48186082  0.25794880  0.31628985    -0.83700
O85         O  0.40166088  0.24405269  0.25375646    -0.70400
O86         O  0.44917431  0.28433203  0.25399395    -0.82600
Zr87       Zr  0.00617659  0.18458245  0.22641290     2.26400
Zr88       Zr  0.41408161  0.18555848  0.26630675     2.06300
Zr89       Zr  0.01167183  0.27074086  0.26497157     2.10000
Zr90       Zr  0.49348246  0.19968208  0.32743802     1.78800
O91         O  0.03306117  0.30576462  0.22140628    -0.91400
O92         O  0.47870977  0.15129073  0.35813520    -0.39200
O93         O  0.02366716  0.21236770  0.27645187    -0.75800
O94         O  0.47686158  0.17104369  0.27844644    -0.94500
O95         O  0.44400982  0.19810664  0.21500406    -0.87800
O96         O  0.49583323  0.24279291  0.21464242    -0.90600
C97         C  0.44382906  0.24517074  0.38855702     1.03100
C98         C  0.45816683  0.34258096  0.29006601     1.16100
C99         C  0.33991822  0.23530478  0.29820190     1.06800
O100        O  0.39333368  0.14948945  0.30915478    -0.92800
O101        O  0.43479645  0.12848112  0.24999980    -0.88500
O102        O  0.49081662  0.12746201  0.22805569    -0.81700
C103        C  0.46412504  0.11327358  0.23762291     1.13500
O104        O  0.38478208  0.30307483  0.19736089    -0.94800
Zr105      Zr  0.43330641  0.25652293  0.20384630     1.88900
O106        O  0.00152937  0.19137696  0.16399020    -0.71400
O107        O  0.37437411  0.17075331  0.22170880    -0.50700
O108        O  0.38368199  0.23833964  0.17288907    -0.95400
O109        O  0.45121352  0.30387888  0.17354253    -0.52600
O110        O  0.45760263  0.23360387  0.15083670    -0.71900
C111        C  0.48205692  0.20966411  0.14278714     1.00400
O112        O  0.05456105  0.14229780  0.20628109    -0.60700
O113        O  0.05179306  0.28701195  0.30854793    -0.55500
O114        O  0.06889564  0.19287820  0.23257091    -0.92200
O115        O  0.07202083  0.24586565  0.25018992    -0.90700
O116        O  0.04380217  0.21804869  0.35712104    -0.91000
O117        O  0.04338402  0.15460265  0.33325752    -0.89800
C118        C  0.08628874  0.21678894  0.24032962     1.19300
H119        H  0.48870075  0.27082028  0.33526753     0.35200
H120        H  0.48313995  0.14805569  0.28515163     0.46100
H121        H  0.00990346  0.24837463  0.19546760     0.39600
H122        H  0.37687055  0.25102083  0.24789759     0.36100
H123        H  0.49138899  0.15141219  0.38024156     0.27800
H124        H  0.36173881  0.15363636  0.23225408     0.33800
H125        H  0.38522467  0.24709896  0.14943822     0.39700
H126        H  0.04040390  0.21245264  0.38137755     0.34200
H127        H  0.06818599  0.29961960  0.29605339     0.33000
H128        H  0.05278371  0.31529579  0.23250326     0.34700
H129        H  0.47517476  0.29562956  0.16401633     0.33700
H130        H  0.04975652  0.14757796  0.30957064     0.37700
H131        H  0.05897004  0.12568185  0.22490386     0.30400
H132        H  0.36385534  0.31085906  0.34322212     0.34600
H133        H  0.38031267  0.30534121  0.17251612     0.37500
H134        H  0.03692536  0.30401832  0.32263132     0.30100
H135        H  0.04434816  0.13053437  0.18738556     0.43000
H136        H  0.41549094  0.13726323  0.31928287     0.33000
H137        H  0.45309053  0.15723701  0.36412490     0.40700
H138        H  0.45580826  0.31963868  0.19172929     0.32500
H139        H  0.35574421  0.19055036  0.21917955     0.32600
H140        H  0.35875798  0.32281078  0.30513455     0.32800
Zr141      Zr  0.25038798  0.26111539  0.47444195     2.17500
O142        O  0.29628121  0.26899150  0.43253730    -0.49500
O143        O  0.24306415  0.32186012  0.47802658    -0.72700
O144        O  0.23006375  0.26165257  0.41513693    -0.79500
O145        O  0.32195128  0.24356477  0.04499463    -0.81300
O146        O  0.17808743  0.23997325  0.41072034    -0.76900
O147        O  0.31293704  0.25872541  0.48891873    -0.88500
O148        O  0.20074322  0.33946311  0.01900023    -0.74500
O149        O  0.18744136  0.27618892  0.48140960    -0.84000
O150        O  0.24212019  0.27642878  0.03327410    -0.83700
O151        O  0.22616674  0.21128849  0.46029584    -0.70400
O152        O  0.27540866  0.21357545  0.00785579    -0.82600
Zr153      Zr  0.17741734  0.19466070  0.05971332     2.26400
Zr154      Zr  0.16269864  0.22636480  0.46871744     2.06300
Zr155      Zr  0.26592477  0.22870494  0.06636216     2.10000
Zr156      Zr  0.17928717  0.29078200  0.04089912     1.78800
O157        O  0.31146366  0.18368282  0.08581624    -0.91400
O158        O  0.12615149  0.32516947  0.01803377    -0.39200
O159        O  0.20277269  0.24342960  0.07438859    -0.75800
O160        O  0.15224305  0.24305664  0.02738678    -0.94500
O161        O  0.18685242  0.17884719  0.00166689    -0.87800
O162        O  0.24052281  0.17944831  0.05331277    -0.90600
C163        C  0.22466274  0.34464128  0.49610440     1.03100
C164        C  0.33225920  0.25369115  0.01614774     1.16100
C165        C  0.20446870  0.25224057  0.39788603     1.06800
O166        O  0.11418329  0.26786829  0.44796267    -0.92800
O167        O  0.10710457  0.20890092  0.48797437    -0.88500
O168        O  0.11543163  0.19403317  0.04333291    -0.81700
C169        C  0.09603769  0.19957834  0.01653351     1.13500
O170        O  0.30490787  0.15812587  0.46099551    -0.94800
Zr171      Zr  0.24990566  0.16479233  0.99466738     1.88900
O172        O  0.18512555  0.13421304  0.05538095    -0.71400
O173        O  0.14774892  0.18157545  0.43259591    -0.50700
O174        O  0.23824964  0.13717717  0.44191912    -0.95400
O175        O  0.29916230  0.12665328  0.01983065    -0.52600
O176        O  0.22309765  0.11730647  0.01174782    -0.71900
C177        C  0.20096032  0.11210705  0.03499744     1.00400
O178        O  0.14023661  0.18044649  0.10692175    -0.60700
O179        O  0.28446137  0.27040764  0.10462160    -0.55500
O180        O  0.19324036  0.20060041  0.11947707    -0.92200
O181        O  0.24686918  0.21937309  0.12435232    -0.90700
O182        O  0.19657527  0.32061578  0.09065021    -0.91000
O183        O  0.13050359  0.29966528  0.08209842    -0.89800
C184        C  0.21891702  0.20954465  0.13697210     1.19300
H185        H  0.25467917  0.29470200  0.03907342     0.35200
H186        H  0.12712847  0.24994012  0.03194319     0.46100
H187        H  0.24930229  0.16137687  0.06857491     0.39600
H188        H  0.23190038  0.20420836  0.43720337     0.36100
H189        H  0.12684101  0.34768711  0.02751039     0.27800
H190        H  0.12915303  0.19257530  0.41682094     0.33800
H191        H  0.24798567  0.11339636  0.44563729     0.39700
H192        H  0.18302065  0.34338604  0.08849723     0.34200
H193        H  0.30552406  0.25859697  0.11692145     0.33000
H194        H  0.32488684  0.19394850  0.10359898     0.34700
H195        H  0.29941535  0.10554004  0.00709319     0.33700
H196        H  0.13647619  0.28157670  0.09904621     0.37700
H197        H  0.11952294  0.19855369  0.10808309     0.30400
H198        H  0.28628986  0.28859652  0.41865681     0.34600
H199        H  0.30725707  0.13552055  0.45093672     0.37500
H200        H  0.29428913  0.28662210  0.08982744     0.30100
H201        H  0.13010310  0.16049512  0.09943472     0.43000
H202        H  0.10147459  0.27690965  0.46881866     0.33000
H203        H  0.13232109  0.32810719  0.49161907     0.40700
H204        H  0.29117845  0.12149869  0.04299796     0.32500
H205        H  0.16910648  0.17516242  0.41806154     0.32600
H206        H  0.29805464  0.24968341  0.41683247     0.32800
Zr207      Zr  0.25643631  0.43526116  0.30503110     2.17500
O208        O  0.29841334  0.38766057  0.32552061    -0.49500
O209        O  0.24915167  0.44170191  0.36727379    -0.72700
O210        O  0.31885659  0.44586175  0.30631630    -0.79500
O211        O  0.18820586  0.37773268  0.27754869    -0.81300
O212        O  0.32192942  0.49782775  0.28578528    -0.76900
O213        O  0.24414690  0.37783876  0.29920301    -0.88500
O214        O  0.20686172  0.48600362  0.37984337    -0.74500
O215        O  0.24472189  0.49350980  0.31662031    -0.84000
O216        O  0.19366910  0.44791060  0.31588196    -0.83700
O217        O  0.27426411  0.46148928  0.25377552    -0.70400
O218        O  0.22669798  0.42130134  0.25399771    -0.82600
Zr219      Zr  0.16950047  0.02142600  0.22604108     2.26400
Zr220      Zr  0.26154651  0.02016233  0.26628848     2.06300
Zr221      Zr  0.16400112  0.43509801  0.26457437     2.10000
Zr222      Zr  0.18173732  0.50626770  0.32631856     1.78800
O223        O  0.14312430  0.40028113  0.22056401    -0.91400
O224        O  0.19623162  0.05517792  0.35717239    -0.39200
O225        O  0.15186198  0.49356491  0.27557565    -0.75800
O226        O  0.19869850  0.03489414  0.27788595    -0.94500
O227        O  0.23195772  0.00739760  0.21481383    -0.87800
O228        O  0.18038744  0.46259992  0.21412563    -0.90600
C229        C  0.23062379  0.46168481  0.38833562     1.03100
C230        C  0.21808703  0.36303588  0.28937021     1.16100
C231        C  0.33615593  0.46974676  0.29829343     1.06800
O232        O  0.28014934  0.05854697  0.30808935    -0.92800
O233        O  0.24143109  0.07722425  0.24916489    -0.88500
O234        O  0.18540400  0.07830492  0.22719421    -0.81700
C235        C  0.21212640  0.09247909  0.23670176     1.13500
O236        O  0.29273006  0.40334106  0.19720301    -0.94800
Zr237      Zr  0.24295856  0.44871859  0.20371579     1.88900
O238        O  0.17495401  0.01494142  0.16374395    -0.71400
O239        O  0.30310795  0.03172836  0.22192216    -0.50700
O240        O  0.29288489  0.46618140  0.17259818    -0.95400
O241        O  0.22499552  0.40043082  0.17519524    -0.52600
O242        O  0.21809827  0.47047508  0.15029287    -0.71900
C243        C  0.19403310  0.99574722  0.14241928     1.00400
O244        O  0.12094501  0.06309635  0.20511813    -0.60700
O245        O  0.12400731  0.41759032  0.30760207    -0.55500
O246        O  0.10666590  0.01328932  0.23162052    -0.92200
O247        O  0.10364523  0.46043517  0.25022185    -0.90700
O248        O  0.13206882  0.48616405  0.35524817    -0.91000
O249        O  0.13154063  0.05134705  0.33380285    -0.89800
C250        C  0.08945748  0.48933965  0.23977542     1.19300
H251        H  0.18680313  0.43524535  0.33499771     0.35200
H252        H  0.19252417  0.05794588  0.28439811     0.46100
H253        H  0.16625608  0.45713854  0.19497908     0.39600
H254        H  0.29906066  0.45443368  0.24801705     0.36100
H255        H  0.18557666  0.05399350  0.38014175     0.27800
H256        H  0.32035158  0.04395005  0.23369945     0.33800
H257        H  0.28867640  0.46121955  0.14832829     0.39700
H258        H  0.13476450  0.49185825  0.37957725     0.34200
H259        H  0.10914135  0.40350543  0.29505418     0.33000
H260        H  0.12030504  0.39452232  0.22947818     0.34700
H261        H  0.20074742  0.40823029  0.16607530     0.33700
H262        H  0.12645380  0.06009051  0.31044213     0.37700
H263        H  0.11721578  0.08065151  0.22286174     0.30400
H264        H  0.31097642  0.39593596  0.34519630     0.34600
H265        H  0.29493503  0.39907724  0.17235988     0.37500
H266        H  0.13934468  0.40179917  0.32260172     0.30100
H267        H  0.13090205  0.07374060  0.18529915     0.43000
H268        H  0.28439989  0.04534161  0.32933650     0.33000
H269        H  0.22238578  0.05033372  0.36109155     0.40700
H270        H  0.22106186  0.38499005  0.19390870     0.32500
H271        H  0.31709928  0.00973967  0.21638636     0.32600
H272        H  0.31689129  0.38291776  0.30752745     0.32800
C273        C  0.15700555  0.20442077  0.23835036    -0.11500
C274        C  0.12470713  0.21029909  0.23891923    -0.13000
C275        C  0.20848748  0.20490996  0.20308753    -0.11500
C276        C  0.21540003  0.20858295  0.17340275    -0.13000
C277        C  0.20373479  0.15840790  0.23770245    -0.11500
C278        C  0.20800390  0.12830419  0.23612060    -0.13000
C279        C  0.19289512  0.07902479  0.03773217    -0.11500
C280        C  0.18716633  0.05071368  0.03837038    -0.13000
C281        C  0.18533095  0.00592729  0.07601023    -0.11500
C282        C  0.18813154  0.00126872  0.10643931    -0.13000
C283        C  0.11561495  0.01082960  0.02011164    -0.11500
C284        C  0.14604984  0.01318582  0.02754484    -0.13000
C285        C  0.48779523  0.20411265  0.10680488    -0.11500
C286        C  0.49001856  0.19986047  0.07628822    -0.13000
C287        C  0.05930672  0.19542421  0.01994991    -0.11500
C288        C  0.02892882  0.19284304  0.02736762    -0.12600
C289        C  0.48746837  0.15546609  0.03856474    -0.11500
C290        C  0.48132018  0.12730584  0.03803144    -0.13000
C291        C  0.47193490  0.04744132  0.23853947    -0.11500
C292        C  0.46815447  0.07751080  0.23713739    -0.13000
C293        C  0.05097775  0.49576307  0.23827131    -0.11500
C294        C  0.01846162  0.00169963  0.23820605    -0.13000
C295        C  0.46611261  0.00178229  0.20323659    -0.11500
C296        C  0.45896211  0.99876614  0.17347534    -0.13000
C297        C  0.21133232  0.46260207  0.01263039    -0.14600
C298        C  0.21019121  0.49566944  0.01735423    -0.29800
H299        H  0.19139971  0.45022850  0.02543567     0.14400
H300        H  0.22995595  0.00775009  0.00469682     0.15000
C301        C  0.23578717  0.40689227  0.49198996    -0.11500
C302        C  0.23131026  0.37817144  0.49241699    -0.13000
C303        C  0.30583708  0.44809079  0.01252939    -0.11500
C304        C  0.27602181  0.44505616  0.50395592    -0.13000
C305        C  0.23598802  0.45645929  0.42435774    -0.11500
C306        C  0.23790185  0.45198185  0.45482788    -0.13000
C307        C  0.46352411  0.24399785  0.01321357    -0.14600
C308        C  0.46482061  0.21095274  0.01793943    -0.29800
H309        H  0.48328644  0.25652737  0.02609092     0.14400
H310        H  0.44498291  0.19856743  0.00497133     0.15000
C311        C  0.43855559  0.25066968  0.42453133    -0.11500
C312        C  0.43711756  0.25496387  0.45503432    -0.13000
C313        C  0.36897339  0.25778458  0.01226302    -0.11500
C314        C  0.39926672  0.26090046  0.50409841    -0.13000
C315        C  0.43885284  0.29980373  0.49255334    -0.11500
C316        C  0.44310245  0.32857675  0.49310610    -0.13000
C317        C  0.21246606  0.24432310  0.26936431    -0.14600
C318        C  0.21440033  0.21088586  0.26583095    -0.29800
H319        H  0.19761513  0.26025485  0.25026183     0.14400
H320        H  0.22959809  0.19471713  0.28451274     0.15000
C321        C  0.30154324  0.24143438  0.30053401    -0.11500
C322        C  0.26936593  0.24878135  0.29941999    -0.13000
C323        C  0.20728491  0.25373137  0.36141228    -0.11500
C324        C  0.21524680  0.25519471  0.33168193    -0.13000
C325        C  0.22607991  0.29721030  0.29313322    -0.11500
C326        C  0.22276806  0.32724634  0.29119123    -0.13000
C327        C  0.46372218  0.46136745  0.26957996    -0.14600
C328        C  0.46169925  0.49482739  0.26593393    -0.29800
H329        H  0.47836951  0.44546207  0.25034425     0.14400
H330        H  0.44679446  0.51097560  0.28480462     0.15000
C331        C  0.45045459  0.40837777  0.29353854    -0.11500
C332        C  0.45367359  0.37834361  0.29182720    -0.13000
C333        C  0.46913495  0.45132286  0.36185391    -0.11500
C334        C  0.46116978  0.45027072  0.33207113    -0.13000
C335        C  0.40686939  0.45651879  0.29979862    -0.11500
C336        C  0.37461169  0.46358067  0.30075828    -0.13000
C337        C  0.44533837  0.44490724  0.79846285    -0.00700
C338        C  0.23008834  0.26107443  0.79820889    -0.00700
C339        C  0.43479459  0.26441975  0.99161722    -0.00700
C340        C  0.24012265  0.44181272  0.99143366    -0.00700
C341        C  0.47899624  0.01135345  0.73723166    -0.00700
C342        C  0.99293930  0.19065523  0.54014342    -0.00700
C343        C  0.18288263  0.01607148  0.54037587    -0.00700
C344        C  0.19613426  0.19513853  0.73621951    -0.00700
Zr345      Zr  0.42455500  0.44492392  0.97484870     2.17500
O346        O  0.37861217  0.43657282  0.93311170    -0.49500
O347        O  0.43246018  0.38427296  0.97838351    -0.72700
O348        O  0.44459178  0.44431202  0.91542170    -0.79500
O349        O  0.35323733  0.46172506  0.54503776    -0.81300
O350        O  0.49845471  0.46268283  0.91162550    -0.76900
O351        O  0.36209686  0.44683693  0.98964556    -0.88500
O352        O  0.47244857  0.36714342  0.51954485    -0.74500
O353        O  0.48731114  0.42892971  0.98260398    -0.84000
O354        O  0.43215668  0.43023672  0.53338749    -0.83700
O355        O  0.44995559  0.49402322  0.96022808    -0.70400
O356        O  0.39912504  0.49314523  0.50743991    -0.82600
Zr357      Zr  0.49723034  0.51170885  0.55934229     2.26400
Zr358      Zr  0.01315349  0.47886968  0.96937660     2.06300
Zr359      Zr  0.40861653  0.47835934  0.56614880     2.10000
Zr360      Zr  0.49498047  0.41545526  0.54110892     1.78800
O361        O  0.36193699  0.02233123  0.58594898    -0.91400
O362        O  0.04875774  0.38041416  0.51976844    -0.39200
O363        O  0.47161388  0.46317479  0.57407179    -0.75800
O364        O  0.02271966  0.46229414  0.52803264    -0.94500
O365        O  0.48883651  0.02685008  0.50189284    -0.87800
O366        O  0.43456930  0.02720753  0.55337994    -0.90600
C367        C  0.45066202  0.36158189  0.99668366     1.03100
C368        C  0.34284539  0.45204555  0.51601475     1.16100
C369        C  0.47123945  0.45205167  0.89845806     1.06800
O370        O  0.06174185  0.43639731  0.95062994    -0.92800
O371        O  0.06804657  0.49772764  0.98841668    -0.88500
O372        O  0.05987266  0.01225166  0.54427384    -0.81700
C373        C  0.07922050  0.50574822  0.51791672     1.13500
O374        O  0.37458416  0.04835755  0.95500375    -0.94800
Zr375      Zr  0.42579883  0.04141852  0.49460905     1.88900
O376        O  0.48996673  0.07197677  0.55565903    -0.71400
O377        O  0.02946076  0.02114842  0.93068840    -0.50700
O378        O  0.43846355  0.07126354  0.94289918    -0.95400
O379        O  0.37485355  0.07696473  0.52009433    -0.52600
O380        O  0.45143162  0.08923932  0.51252442    -0.71900
C381        C  0.47373251  0.09429578  0.53567747     1.00400
O382        O  0.03335442  0.52569576  0.60767587    -0.60700
O383        O  0.39035896  0.43952367  0.60774711    -0.55500
O384        O  0.48155532  0.00647498  0.61990131    -0.92200
O385        O  0.42853485  0.48744390  0.62404122    -0.90700
O386        O  0.47923262  0.38672371  0.59219385    -0.91000
O387        O  0.04293113  0.40470826  0.58361804    -0.89800
C388        C  0.45526247  0.99867101  0.63729508     1.19300
H389        H  0.41934181  0.41214808  0.53924745     0.35200
H390        H  0.04776738  0.45532961  0.53285918     0.46100
H391        H  0.42570045  0.04548145  0.56837270     0.39600
H392        H  0.44403585  0.00163652  0.93723917     0.36100
H393        H  0.04848448  0.35821267  0.53017778     0.27800
H394        H  0.04434715  0.00848495  0.91287884     0.33800
H395        H  0.42993689  0.09507591  0.94780652     0.39700
H396        H  0.48970852  0.36310405  0.58860938     0.34200
H397        H  0.36758773  0.45111756  0.61732609     0.33000
H398        H  0.35140152  0.01288232  0.60618232     0.34700
H399        H  0.38429340  0.08702495  0.54053365     0.33700
H400        H  0.03796927  0.42364907  0.59971596     0.37700
H401        H  0.05354882  0.50718073  0.60986792     0.30400
H402        H  0.38805549  0.41593528  0.92055374     0.34600
H403        H  0.36721289  0.07272071  0.95262646     0.37500
H404        H  0.38339733  0.42092969  0.59420951     0.30100
H405        H  0.04438675  0.54507285  0.59999985     0.43000
H406        H  0.07377402  0.42774792  0.97195392     0.33000
H407        H  0.04292496  0.37730354  0.99521615     0.40700
H408        H  0.35946554  0.06130538  0.52918160     0.32500
H409        H  0.50597711  0.02979642  0.91804941     0.32600
H410        H  0.37775377  0.45481922  0.91619831     0.32800
Zr411      Zr  0.41901705  0.27079381  0.80538421     2.17500
O412        O  0.37580486  0.31877273  0.82278737    -0.49500
O413        O  0.42498546  0.26476234  0.86770537    -0.72700
O414        O  0.35683062  0.25937379  0.80678655    -0.79500
O415        O  0.48755751  0.32816466  0.77803617    -0.81300
O416        O  0.35384253  0.20762000  0.78568057    -0.76900
O417        O  0.43186615  0.32805519  0.80033830    -0.88500
O418        O  0.46898573  0.22198376  0.88060910    -0.74500
O419        O  0.43079385  0.21267353  0.81735089    -0.84000
O420        O  0.48184815  0.25848848  0.81650497    -0.83700
O421        O  0.40158744  0.24433834  0.75420965    -0.70400
O422        O  0.44912487  0.28465539  0.75453923    -0.82600
Zr423      Zr  0.00608937  0.18490245  0.72620655     2.26400
Zr424      Zr  0.41390990  0.18583010  0.76666517     2.06300
Zr425      Zr  0.01186537  0.27083331  0.76498042     2.10000
Zr426      Zr  0.49369271  0.20019650  0.82747343     1.78800
O427        O  0.03388043  0.30625335  0.72217148    -0.91400
O428        O  0.47970601  0.15286952  0.86049116    -0.39200
O429        O  0.02376462  0.21246785  0.77629489    -0.75800
O430        O  0.47669191  0.17148553  0.77858410    -0.94500
O431        O  0.44346290  0.19867642  0.71516628    -0.87800
O432        O  0.49558153  0.24330798  0.71477411    -0.90600
C433        C  0.44429511  0.24557448  0.88890342     1.03100
C434        C  0.45779673  0.34282867  0.79011837     1.16100
C435        C  0.33957038  0.23556460  0.79839007     1.06800
O436        O  0.39587917  0.14851182  0.80982642    -0.92800
O437        O  0.43467515  0.12894534  0.74973075    -0.88500
O438        O  0.49091719  0.12787359  0.72835470    -0.81700
C439        C  0.46417202  0.11371238  0.73773443     1.13500
O440        O  0.38368812  0.30309385  0.69774537    -0.94800
Zr441      Zr  0.43296466  0.25722749  0.70431939     1.88900
O442        O  0.00063062  0.19162828  0.66389625    -0.71400
O443        O  0.37287817  0.17052080  0.72352414    -0.50700
O444        O  0.38240665  0.24024654  0.67385615    -0.95400
O445        O  0.45130015  0.30507376  0.67519095    -0.52600
O446        O  0.45716320  0.23495760  0.65102196    -0.71900
C447        C  0.48143885  0.21088573  0.64290706     1.00400
O448        O  0.05493278  0.14313524  0.70604946    -0.60700
O449        O  0.05165712  0.28597045  0.80942551    -0.55500
O450        O  0.06882880  0.19324791  0.73130385    -0.92200
O451        O  0.07203961  0.24612067  0.74921120    -0.90700
O452        O  0.04318785  0.21817297  0.85728956    -0.91000
O453        O  0.04300666  0.15385907  0.83011506    -0.89800
C454        C  0.08625016  0.21713609  0.73901160     1.19300
H455        H  0.48865964  0.27134637  0.83550162     0.35200
H456        H  0.48295563  0.14850547  0.78532349     0.46100
H457        H  0.00997133  0.24872960  0.69546839     0.39600
H458        H  0.37679232  0.25130365  0.74838109     0.36100
H459        H  0.49350650  0.15334040  0.88193033     0.27800
H460        H  0.35766658  0.15657258  0.73582748     0.33800
H461        H  0.38512368  0.24723515  0.64991211     0.39700
H462        H  0.04329191  0.20731482  0.87992724     0.34200
H463        H  0.06912512  0.29760265  0.79723523     0.33000
H464        H  0.05092226  0.31819605  0.73460152     0.34700
H465        H  0.47519325  0.29686832  0.66548956     0.33700
H466        H  0.05546901  0.15421874  0.80792357     0.37700
H467        H  0.05893707  0.12602090  0.72422909     0.30400
H468        H  0.36296913  0.31131451  0.84270855     0.34600
H469        H  0.38117915  0.30707750  0.67287376     0.37500
H470        H  0.03706539  0.30369426  0.82287612     0.30100
H471        H  0.04507355  0.13191039  0.68656757     0.43000
H472        H  0.39530694  0.16114638  0.83147619     0.33000
H473        H  0.45441780  0.15918603  0.86750160     0.40700
H474        H  0.45607832  0.32037484  0.69374377     0.32500
H475        H  0.35666473  0.19144166  0.71835045     0.32600
H476        H  0.35773291  0.32227642  0.80430873     0.32800
Zr477      Zr  0.25014068  0.26118999  0.97476040     2.17500
O478        O  0.29639263  0.26740498  0.93264914    -0.49500
O479        O  0.24227584  0.32191173  0.97837277    -0.72700
O480        O  0.22969124  0.26259735  0.91544347    -0.79500
O481        O  0.32192890  0.24426007  0.54475150    -0.81300
O482        O  0.17767126  0.24102651  0.91103983    -0.76900
O483        O  0.31244312  0.25997417  0.98973988    -0.88500
O484        O  0.20128842  0.33977183  0.51830309    -0.74500
O485        O  0.18726222  0.27631694  0.98210328    -0.84000
O486        O  0.24213538  0.27692028  0.53278392    -0.83700
O487        O  0.22589437  0.21146767  0.96036069    -0.70400
O488        O  0.27572367  0.21373826  0.50790159    -0.82600
Zr489      Zr  0.17755804  0.19538103  0.55979945     2.26400
Zr490      Zr  0.16252902  0.22666903  0.96889203     2.06300
Zr491      Zr  0.26595196  0.22944237  0.56623466     2.10000
Zr492      Zr  0.17923556  0.29131035  0.54001646     1.78800
O493        O  0.31186188  0.18558911  0.58736564    -0.91400
O494        O  0.12643443  0.32529148  0.51595638    -0.39200
O495        O  0.20279289  0.24432691  0.57402811    -0.75800
O496        O  0.15224471  0.24339543  0.52698536    -0.94500
O497        O  0.18709026  0.17891906  0.50196748    -0.87800
O498        O  0.24067172  0.18012106  0.55344239    -0.90600
C499        C  0.22387594  0.34453958  0.99663237     1.03100
C500        C  0.33251951  0.25331012  0.51557993     1.16100
C501        C  0.20403305  0.25330213  0.89818762     1.06800
O502        O  0.11391885  0.26765198  0.94740540    -0.92800
O503        O  0.10666280  0.20980953  0.98788452    -0.88500
O504        O  0.11554714  0.19455085  0.54383436    -0.81700
C505        C  0.09631350  0.19936678  0.51687272     1.13500
O506        O  0.30288827  0.15857895  0.95825127    -0.94800
Zr507      Zr  0.25015016  0.16494349  0.49495837     1.88900
O508        O  0.18570977  0.13481468  0.55620751    -0.71400
O509        O  0.14835883  0.18170485  0.93263122    -0.50700
O510        O  0.23869332  0.13550046  0.94238734    -0.95400
O511        O  0.29842662  0.12529038  0.51953983    -0.52600
O512        O  0.22349834  0.11757821  0.51253057    -0.71900
C513        C  0.20157242  0.11251945  0.53601539     1.00400
O514        O  0.14101642  0.18109418  0.60745207    -0.60700
O515        O  0.28358685  0.27129989  0.60477950    -0.55500
O516        O  0.19281282  0.20240834  0.61944936    -0.92200
O517        O  0.24751913  0.21903858  0.62411082    -0.90700
O518        O  0.19544660  0.32161239  0.58986935    -0.91000
O519        O  0.13036459  0.30078266  0.58107359    -0.89800
C520        C  0.21912622  0.21020077  0.63682989     1.19300
H521        H  0.25470069  0.29521682  0.53845289     0.35200
H522        H  0.12709248  0.25024924  0.53138346     0.46100
H523        H  0.24953058  0.16215919  0.56880717     0.39600
H524        H  0.23150142  0.20460815  0.93717663     0.36100
H525        H  0.12627378  0.34768168  0.52605767     0.27800
H526        H  0.13144586  0.19285085  0.91542527     0.33800
H527        H  0.24804681  0.11177883  0.94695303     0.39700
H528        H  0.18327312  0.34476002  0.58654716     0.34200
H529        H  0.30658388  0.26069268  0.61476318     0.33000
H530        H  0.32156464  0.19522280  0.60793835     0.34700
H531        H  0.29739053  0.10415556  0.50719731     0.33700
H532        H  0.12989248  0.27871282  0.59172186     0.37700
H533        H  0.11935469  0.19820724  0.60786298     0.30400
H534        H  0.28705922  0.28713434  0.91865757     0.34600
H535        H  0.30821266  0.13460989  0.95238609     0.37500
H536        H  0.29014517  0.28918043  0.58994590     0.30100
H537        H  0.13234548  0.16016723  0.60075052     0.43000
H538        H  0.09971593  0.27545859  0.96786809     0.33000
H539        H  0.13114603  0.32736744  0.99341073     0.40700
H540        H  0.29073581  0.12087908  0.54301380     0.32500
H541        H  0.17064843  0.17419086  0.91973989     0.32600
H542        H  0.29746076  0.24804866  0.91707624     0.32800
Zr543      Zr  0.25656884  0.43531946  0.80524365     2.17500
O544        O  0.29878747  0.38767239  0.82523688    -0.49500
O545        O  0.25046776  0.44170636  0.86753979    -0.72700
O546        O  0.31881151  0.44618951  0.80659368    -0.79500
O547        O  0.18783081  0.37808290  0.77800784    -0.81300
O548        O  0.32157395  0.49825154  0.78618546    -0.76900
O549        O  0.24376898  0.37799698  0.79976127    -0.88500
O550        O  0.20687725  0.48477000  0.88056710    -0.74500
O551        O  0.24477685  0.49341222  0.81740951    -0.84000
O552        O  0.19388338  0.44773300  0.81633730    -0.83700
O553        O  0.27404882  0.46203870  0.75412078    -0.70400
O554        O  0.22660824  0.42161845  0.75422883    -0.82600
Zr555      Zr  0.17005451  0.02094274  0.72623394     2.26400
Zr556      Zr  0.26143014  0.02024602  0.76734033     2.06300
Zr557      Zr  0.16394051  0.43545548  0.76498295     2.10000
Zr558      Zr  0.18188498  0.50600753  0.82733992     1.78800
O559        O  0.14378045  0.40051378  0.72070987    -0.91400
O560        O  0.19514878  0.05383576  0.85890829    -0.39200
O561        O  0.15184223  0.49386916  0.77636818    -0.75800
O562        O  0.19849649  0.03453987  0.77851867    -0.94500
O563        O  0.23260270  0.00714411  0.71555159    -0.87800
O564        O  0.18011596  0.46307472  0.71454191    -0.90600
C565        C  0.23143986  0.46104272  0.88879288     1.03100
C566        C  0.21764145  0.36329812  0.78986839     1.16100
C567        C  0.33593535  0.47019553  0.79863289     1.06800
O568        O  0.28043230  0.05741014  0.81017288    -0.92800
O569        O  0.24084300  0.07729230  0.75023599    -0.88500
O570        O  0.18505571  0.07812137  0.72789593    -0.81700
C571        C  0.21161342  0.09244151  0.73753975     1.13500
O572        O  0.29263308  0.40395321  0.69865001    -0.94800
Zr573      Zr  0.24268903  0.44932325  0.70408347     1.88900
O574        O  0.17712635  0.01465718  0.66398066    -0.71400
O575        O  0.30201464  0.03522333  0.72370136    -0.50700
O576        O  0.29191221  0.46666667  0.67182296    -0.95400
O577        O  0.22395432  0.40163632  0.67503385    -0.52600
O578        O  0.21838278  0.47152188  0.65072409    -0.71900
C579        C  0.19568704  0.99499552  0.64268192     1.00400
O580        O  0.12201813  0.06213847  0.70357386    -0.60700
O581        O  0.12360513  0.41818196  0.80781368    -0.55500
O582        O  0.10716205  0.01267875  0.73097884    -0.92200
O583        O  0.10355729  0.46068365  0.75063733    -0.90700
O584        O  0.13130961  0.48789132  0.85678458    -0.91000
O585        O  0.13149359  0.05108698  0.83265249    -0.89800
C586        C  0.08936035  0.48930214  0.73943916     1.19300
H587        H  0.18726014  0.43471367  0.83527543     0.35200
H588        H  0.19205181  0.05755066  0.78508794     0.46100
H589        H  0.16598040  0.45768551  0.69536636     0.39600
H590        H  0.29884768  0.45514152  0.74827022     0.36100
H591        H  0.18503426  0.05163968  0.88196144     0.27800
H592        H  0.32002275  0.04577278  0.73637928     0.33800
H593        H  0.29109555  0.45601028  0.64916321     0.39700
H594        H  0.14133914  0.46750613  0.86945636     0.34200
H595        H  0.10808877  0.40488167  0.79504600     0.33000
H596        H  0.12691180  0.38783307  0.73242328     0.34700
H597        H  0.20080697  0.41030448  0.66408281     0.33700
H598        H  0.11711611  0.04973857  0.81171283     0.37700
H599        H  0.11657525  0.07915519  0.72169526     0.30400
H600        H  0.31098536  0.39572889  0.84526645     0.34600
H601        H  0.29419135  0.39832490  0.67406200     0.37500
H602        H  0.13862483  0.40171319  0.82237530     0.30100
H603        H  0.13291416  0.07363584  0.68489966     0.43000
H604        H  0.25843697  0.07275379  0.81630777     0.33000
H605        H  0.22140115  0.04942993  0.86231916     0.40700
H606        H  0.21758714  0.38708353  0.69362722     0.32500
H607        H  0.31523749  0.01367207  0.71575862     0.32600
H608        H  0.31751264  0.38342696  0.80742065     0.32800
C609        C  0.15697950  0.20465190  0.73719122    -0.11500
C610        C  0.12467363  0.21064413  0.73736662    -0.13000
C611        C  0.20909418  0.20481400  0.70288682    -0.11500
C612        C  0.21596416  0.20881201  0.67325281    -0.13000
C613        C  0.20348060  0.15842763  0.73763132    -0.11500
C614        C  0.20751776  0.12828863  0.73656849    -0.13000
C615        C  0.19371401  0.07937305  0.53910551    -0.11500
C616        C  0.18805240  0.05101774  0.53945548    -0.13000
C617        C  0.18670871  0.00562283  0.57636205    -0.11500
C618        C  0.18990639  0.00064430  0.60671087    -0.13000
C619        C  0.11604004  0.01120549  0.52108757    -0.11500
C620        C  0.14647355  0.01374101  0.52852588    -0.13000
C621        C  0.48732391  0.20534747  0.60694940    -0.11500
C622        C  0.48984637  0.20071030  0.57650690    -0.13000
C623        C  0.05954968  0.19529107  0.52037945    -0.11500
C624        C  0.02910428  0.19291170  0.52776622    -0.12600
C625        C  0.48748107  0.15576451  0.53921482    -0.11500
C626        C  0.48161955  0.12746326  0.53866952    -0.13000
C627        C  0.47203817  0.04792897  0.73917521    -0.11500
C628        C  0.46832504  0.07797143  0.73757746    -0.13000
C629        C  0.05090224  0.49564923  0.73778747    -0.11500
C630        C  0.01883129  0.00142472  0.73792376    -0.13000
C631        C  0.46591440  0.00266349  0.70354013    -0.11500
C632        C  0.45861624  0.99976319  0.67378936    -0.13000
C633        C  0.21172627  0.46246371  0.51277054    -0.14600
C634        C  0.21042719  0.49553116  0.51749223    -0.29800
H635        H  0.19211529  0.44989242  0.52582396     0.14400
H636        H  0.23007459  0.00825402  0.50450455     0.15000
C637        C  0.23526420  0.40674311  0.99261768    -0.11500
C638        C  0.23041593  0.37811712  0.99303570    -0.13000
C639        C  0.30613992  0.44799720  0.51200336    -0.11500
C640        C  0.27574125  0.44481012  0.00476722    -0.13000
C641        C  0.23704946  0.45572600  0.92473990    -0.11500
C642        C  0.23853801  0.45139956  0.95522455    -0.13000
C643        C  0.46372294  0.24423112  0.51287362    -0.14600
C644        C  0.46485729  0.21123668  0.51807328    -0.29800
H645        H  0.48358373  0.25684050  0.52548944     0.14400
H646        H  0.44489141  0.19878732  0.50540278     0.15000
C647        C  0.43876482  0.25077026  0.92488204    -0.11500
C648        C  0.43702054  0.25485333  0.95539987    -0.13000
C649        C  0.36922218  0.25733954  0.51170941    -0.11500
C650        C  0.39907093  0.26112256  0.00453221    -0.13000
C651        C  0.43921515  0.29952416  0.99276793    -0.11500
C652        C  0.44398247  0.32813226  0.99300856    -0.13000
C653        C  0.21195553  0.24449095  0.76937228    -0.14600
C654        C  0.21395374  0.21103611  0.76574268    -0.29800
H655        H  0.19723101  0.26041303  0.75018818     0.14400
H656        H  0.22899014  0.19488081  0.78453191     0.15000
C657        C  0.30112029  0.24175215  0.80060475    -0.11500
C658        C  0.26890256  0.24906258  0.79948307    -0.13000
C659        C  0.20682504  0.25467887  0.86166248    -0.11500
C660        C  0.21472312  0.25565674  0.83184697    -0.13000
C661        C  0.22550166  0.29744808  0.79318656    -0.11500
C662        C  0.22219747  0.32750220  0.79151837    -0.13000
C663        C  0.46338959  0.46145609  0.76953925    -0.14600
C664        C  0.46163993  0.49488330  0.76597936    -0.29800
H665        H  0.47793704  0.44551899  0.75026964     0.14400
H666        H  0.44675516  0.51106099  0.78484141     0.15000
C667        C  0.44972375  0.40860614  0.79332103    -0.11500
C668        C  0.45304818  0.37858126  0.79165382    -0.13000
C669        C  0.46874990  0.45083948  0.86190615    -0.11500
C670        C  0.46092731  0.45008181  0.83205669    -0.13000
C671        C  0.40657014  0.45697780  0.79996833    -0.11500
C672        C  0.37435255  0.46416599  0.80106402    -0.13000
C673        C  0.44497876  0.94480948  0.29865290    -0.00700
C674        C  0.23033162  0.76095423  0.29809833    -0.00700
C675        C  0.43489211  0.76456488  0.49090222    -0.00700
C676        C  0.24030534  0.94227942  0.49117658    -0.00700
C677        C  0.47930775  0.51074050  0.23625959    -0.00700
C678        C  0.99220615  0.69070462  0.04016148    -0.00700
C679        C  0.18235844  0.51615560  0.03982083    -0.00700
C680        C  0.19613085  0.69494951  0.23651729    -0.00700
Zr681      Zr  0.42466820  0.94520426  0.47536471     2.17500
O682        O  0.37967815  0.93265790  0.43451998    -0.49500
O683        O  0.43238357  0.88458249  0.47885902    -0.72700
O684        O  0.44389195  0.94559350  0.41575666    -0.79500
O685        O  0.35299548  0.96273995  0.04548109    -0.81300
O686        O  0.49773462  0.96395173  0.41175141    -0.76900
O687        O  0.36183118  0.94958418  0.48952158    -0.88500
O688        O  0.47388760  0.86686748  0.01910590    -0.74500
O689        O  0.48743719  0.92928523  0.48290055    -0.84000
O690        O  0.43238693  0.93010046  0.03340512    -0.83700
O691        O  0.44971763  0.99448195  0.46076812    -0.70400
O692        O  0.39928769  0.99297511  0.00763491    -0.82600
Zr693      Zr  0.49733650  0.01161074  0.05974942     2.26400
Zr694      Zr  0.01308762  0.97913015  0.46938043     2.06300
Zr695      Zr  0.40880694  0.97812368  0.06632069     2.10000
Zr696      Zr  0.49515713  0.91545011  0.04127762     1.78800
O697        O  0.36278341  0.52390616  0.08372243    -0.91400
O698        O  0.04815788  0.88112866  0.01864698    -0.39200
O699        O  0.47184040  0.96302234  0.07450311    -0.75800
O700        O  0.02272675  0.96309098  0.02794473    -0.94500
O701        O  0.48880443  0.52634145  0.00143575    -0.87800
O702        O  0.43442750  0.52693112  0.05275388    -0.90600
C703        C  0.45086545  0.86177638  0.49676708     1.03100
C704        C  0.34257635  0.95327170  0.01643883     1.16100
C705        C  0.47042459  0.95339321  0.39867141     1.06800
O706        O  0.06296480  0.93836302  0.44993221    -0.92800
O707        O  0.06859076  0.99700096  0.48868546    -0.88500
O708        O  0.05976414  0.51161961  0.04437609    -0.81700
C709        C  0.07883728  0.00686152  0.01659632     1.13500
O710        O  0.37499561  0.54558069  0.45388813    -0.94800
Zr711      Zr  0.42583012  0.54100494  0.99387796     1.88900
O712        O  0.48988084  0.57154892  0.05506077    -0.71400
O713        O  0.02865505  0.52181340  0.43178945    -0.50700
O714        O  0.43869697  0.57217416  0.44306141    -0.95400
O715        O  0.37687604  0.58088689  0.01705258    -0.52600
O716        O  0.45181485  0.58872407  0.01153951    -0.71900
C717        C  0.47390735  0.59380464  0.03487957     1.00400
O718        O  0.03451567  0.02618277  0.10701623    -0.60700
O719        O  0.39008424  0.93781540  0.10608079    -0.55500
O720        O  0.48115318  0.50572293  0.11948224    -0.92200
O721        O  0.42766781  0.98793042  0.12428722    -0.90700
O722        O  0.47707402  0.88681716  0.09154463    -0.91000
O723        O  0.04314854  0.90581845  0.08356809    -0.89800
C724        C  0.45512309  0.49737411  0.13688268     1.19300
H725        H  0.41970304  0.91189791  0.03913288     0.35200
H726        H  0.04782800  0.95620274  0.03260256     0.46100
H727        H  0.42563759  0.54525932  0.06770392     0.39600
H728        H  0.44439610  0.50150213  0.43688376     0.36100
H729        H  0.04691324  0.85841204  0.02733482     0.27800
H730        H  0.04321639  0.50975966  0.41339848     0.33800
H731        H  0.42509341  0.59484063  0.44599966     0.39700
H732        H  0.48173910  0.86279469  0.08579283     0.34200
H733        H  0.36497491  0.94676464  0.11192714     0.33000
H734        H  0.35898295  0.51997059  0.10828828     0.34700
H735        H  0.37804986  0.60185446  0.00444481     0.33700
H736        H  0.03831519  0.92493247  0.09947642     0.37700
H737        H  0.05486860  0.00775397  0.10864746     0.30400
H738        H  0.39099279  0.91297604  0.42143425     0.34600
H739        H  0.36762033  0.56965413  0.44945972     0.37500
H740        H  0.38841449  0.91760938  0.09239268     0.30100
H741        H  0.04520988  0.04570609  0.09919296     0.43000
H742        H  0.05238018  0.91790832  0.44541185     0.33000
H743        H  0.04379984  0.87837447  0.49542369     0.40700
H744        H  0.38406365  0.58569896  0.04058700     0.32500
H745        H  0.50608727  0.53099828  0.41929337     0.32600
H746        H  0.37638215  0.95128925  0.41793615     0.32800
Zr747      Zr  0.41907542  0.77017472  0.30477682     2.17500
O748        O  0.37627696  0.81788496  0.32349256    -0.49500
O749        O  0.42567350  0.76424078  0.36706074    -0.72700
O750        O  0.35692960  0.75895021  0.30580674    -0.79500
O751        O  0.48633429  0.82815758  0.27654915    -0.81300
O752        O  0.35395994  0.70698267  0.28528340    -0.76900
O753        O  0.43167990  0.82763164  0.30090126    -0.88500
O754        O  0.46791661  0.71997779  0.37984271    -0.74500
O755        O  0.43078162  0.71197964  0.31663118    -0.84000
O756        O  0.48181501  0.75783882  0.31572648    -0.83700
O757        O  0.40163222  0.74387082  0.25339813    -0.70400
O758        O  0.44877229  0.78451384  0.25387278    -0.82600
Zr759      Zr  0.00605709  0.68471420  0.22609621     2.26400
Zr760      Zr  0.41386834  0.68532151  0.26579645     2.06300
Zr761      Zr  0.01195333  0.77079242  0.26449463     2.10000
Zr762      Zr  0.49374122  0.69955696  0.32651662     1.78800
O763        O  0.03232897  0.80513585  0.21974629    -0.91400
O764        O  0.48110188  0.65054224  0.35747363    -0.39200
O765        O  0.02361967  0.71246819  0.27602351    -0.75800
O766        O  0.47674107  0.67094589  0.27756801    -0.94500
O767        O  0.44346597  0.69840347  0.21439655    -0.87800
O768        O  0.49561327  0.74308417  0.21398470    -0.90600
C769        C  0.44416725  0.74437376  0.38823476     1.03100
C770        C  0.45714319  0.84261956  0.28992190     1.16100
C771        C  0.33969825  0.73506569  0.29768539     1.06800
O772        O  0.39494662  0.64821879  0.30872291    -0.92800
O773        O  0.43421112  0.62841880  0.24854166    -0.88500
O774        O  0.49026753  0.62765956  0.22687393    -0.81700
C775        C  0.46363780  0.61331829  0.23627401     1.13500
O776        O  0.38439892  0.80323237  0.19634024    -0.94800
Zr777      Zr  0.43309261  0.75697928  0.20354631     1.88900
O778        O  0.00056403  0.69117128  0.16385038    -0.71400
O779        O  0.37248600  0.67076742  0.22258124    -0.50700
O780        O  0.38275608  0.74227942  0.17093213    -0.95400
O781        O  0.45321812  0.80486159  0.17608591    -0.52600
O782        O  0.45739020  0.73445529  0.15035303    -0.71900
C783        C  0.48160127  0.71034764  0.14217986     1.00400
O784        O  0.05451828  0.64238616  0.20617121    -0.60700
O785        O  0.05356429  0.78785792  0.30614206    -0.55500
O786        O  0.06884091  0.69287687  0.23124412    -0.92200
O787        O  0.07213314  0.74557968  0.24965407    -0.90700
O788        O  0.04348924  0.71979645  0.35605606    -0.91000
O789        O  0.04564191  0.65672650  0.33218135    -0.89800
C790        C  0.08629248  0.71665277  0.23928690     1.19300
H791        H  0.48855898  0.77060681  0.33481834     0.35200
H792        H  0.48306161  0.64790811  0.28409375     0.46100
H793        H  0.01003343  0.74850733  0.19500189     0.39600
H794        H  0.37683983  0.75081711  0.24754077     0.36100
H795        H  0.49195196  0.65225882  0.38028418     0.27800
H796        H  0.35691761  0.65713226  0.23484843     0.33800
H797        H  0.39147127  0.72011046  0.16099021     0.39700
H798        H  0.03765104  0.71924406  0.38064810     0.34200
H799        H  0.06556828  0.80451920  0.29402430     0.33000
H800        H  0.04839375  0.81865696  0.23146097     0.34700
H801        H  0.47478487  0.79565755  0.16287809     0.33700
H802        H  0.05423140  0.65249000  0.30848497     0.37700
H803        H  0.05850061  0.62544197  0.22452069     0.30400
H804        H  0.36261448  0.80975836  0.34248586     0.34600
H805        H  0.38288828  0.80766265  0.17149097     0.37500
H806        H  0.03843480  0.80096792  0.32346728     0.30100
H807        H  0.04453349  0.63103504  0.18684424     0.43000
H808        H  0.41719628  0.63369072  0.31571767     0.33000
H809        H  0.45497558  0.65478288  0.36168746     0.40700
H810        H  0.46243341  0.81743927  0.19492143     0.32500
H811        H  0.35667201  0.69191850  0.21738854     0.32600
H812        H  0.35883531  0.82260476  0.30459583     0.32800
Zr813      Zr  0.25052683  0.76157474  0.47502844     2.17500
O814        O  0.29701247  0.76827106  0.43331683    -0.49500
O815        O  0.24225252  0.82229041  0.47788156    -0.72700
O816        O  0.23050277  0.76282379  0.41561509    -0.79500
O817        O  0.32218658  0.74317437  0.04430078    -0.81300
O818        O  0.17872707  0.74084355  0.41129674    -0.76900
O819        O  0.31265894  0.76060868  0.49008905    -0.88500
O820        O  0.20218023  0.83962633  0.01922485    -0.74500
O821        O  0.18764982  0.77669096  0.48254813    -0.84000
O822        O  0.24244585  0.77671202  0.03333107    -0.83700
O823        O  0.22635259  0.71186335  0.46067978    -0.70400
O824        O  0.27560551  0.71352446  0.00793563    -0.82600
Zr825      Zr  0.17705909  0.69561723  0.05994293     2.26400
Zr826      Zr  0.16289739  0.72698944  0.46924228     2.06300
Zr827      Zr  0.26607285  0.72890698  0.06640726     2.10000
Zr828      Zr  0.17961197  0.79143182  0.04082583     1.78800
O829        O  0.31002840  0.68341214  0.08754589    -0.91400
O830        O  0.12752916  0.82815327  0.01897360    -0.39200
O831        O  0.20295570  0.74415951  0.07437096    -0.75800
O832        O  0.15202143  0.74391525  0.02737324    -0.94500
O833        O  0.18632854  0.67936468  0.00200094    -0.87800
O834        O  0.24013578  0.67997529  0.05345702    -0.90600
C835        C  0.22501318  0.84480236  0.49706357     1.03100
C836        C  0.33243445  0.75374361  0.01560436     1.16100
C837        C  0.20500415  0.75322865  0.39838057     1.06800
O838        O  0.11368204  0.76866418  0.45018602    -0.92800
O839        O  0.10762424  0.70869907  0.48867702    -0.88500
O840        O  0.11497011  0.69477171  0.04391958    -0.81700
C841        C  0.09571099  0.69971683  0.01696756     1.13500
O842        O  0.30267383  0.65488143  0.45754444    -0.94800
Zr843      Zr  0.24937076  0.66508089  0.99489175     1.88900
O844        O  0.18452318  0.63506466  0.05605449    -0.71400
O845        O  0.14729703  0.68399469  0.43106708    -0.50700
O846        O  0.23694745  0.63681499  0.44238634    -0.95400
O847        O  0.29813416  0.62558638  0.01902741    -0.52600
O848        O  0.22275674  0.61780872  0.01269173    -0.71900
C849        C  0.20057767  0.61276867  0.03594581     1.00400
O850        O  0.13947750  0.68402856  0.10787121    -0.60700
O851        O  0.28675914  0.76871477  0.10557363    -0.55500
O852        O  0.19356572  0.70068972  0.11960774    -0.92200
O853        O  0.24679069  0.72018382  0.12440156    -0.90700
O854        O  0.19698341  0.82001399  0.09137578    -0.91000
O855        O  0.13092459  0.80029427  0.08210997    -0.89800
C856        C  0.21914904  0.70984709  0.13705389     1.19300
H857        H  0.25519850  0.79486339  0.03907881     0.35200
H858        H  0.12688315  0.75077581  0.03186015     0.46100
H859        H  0.24880487  0.66184729  0.06869258     0.39600
H860        H  0.23203618  0.70498114  0.43752079     0.36100
H861        H  0.12976837  0.85047098  0.02819947     0.27800
H862        H  0.13018717  0.69607809  0.41457047     0.33800
H863        H  0.24352652  0.61271926  0.44723428     0.39700
H864        H  0.18655829  0.84367408  0.08799414     0.34200
H865        H  0.31162797  0.75894737  0.11145526     0.33000
H866        H  0.32372470  0.69380822  0.10501955     0.34700
H867        H  0.29673548  0.60426150  0.00717323     0.33700
H868        H  0.13375280  0.77952582  0.09577434     0.37700
H869        H  0.11935222  0.70273644  0.10858913     0.30400
H870        H  0.28789777  0.78846501  0.41991462     0.34600
H871        H  0.30748216  0.63043087  0.45410366     0.37500
H872        H  0.28929544  0.78853314  0.09158328     0.30100
H873        H  0.12854589  0.66428907  0.10114631     0.43000
H874        H  0.12521975  0.78756255  0.44205245     0.33000
H875        H  0.13384471  0.83054899  0.49443316     0.40700
H876        H  0.29102472  0.62157336  0.04277959     0.32500
H877        H  0.16923970  0.67668942  0.41758300     0.32600
H878        H  0.29786078  0.74940676  0.41714424     0.32800
Zr879      Zr  0.25592104  0.93526586  0.30522552     2.17500
O880        O  0.29822467  0.88782058  0.32551858    -0.49500
O881        O  0.24928698  0.94170534  0.36746079    -0.72700
O882        O  0.31829329  0.94590767  0.30603913    -0.79500
O883        O  0.18732795  0.87797492  0.27793740    -0.81300
O884        O  0.32129186  0.99809894  0.28610719    -0.76900
O885        O  0.24337153  0.87792849  0.29940698    -0.88500
O886        O  0.20701013  0.98594565  0.38021643    -0.74500
O887        O  0.24453795  0.99343525  0.31702820    -0.84000
O888        O  0.19322772  0.94808306  0.31633020    -0.83700
O889        O  0.27341873  0.96166570  0.25400449    -0.70400
O890        O  0.22597505  0.92134764  0.25430145    -0.82600
Zr891      Zr  0.16998715  0.52105492  0.22562220     2.26400
Zr892      Zr  0.26213166  0.52005689  0.26598939     2.06300
Zr893      Zr  0.16339235  0.93545679  0.26502691     2.10000
Zr894      Zr  0.18165396  0.00647592  0.32692486     1.78800
O895        O  0.14250524  0.90078552  0.22086153    -0.91400
O896        O  0.19393432  0.55437567  0.35909237    -0.39200
O897        O  0.15173354  0.99395431  0.27611890    -0.75800
O898        O  0.19928132  0.53467872  0.27752742    -0.94500
O899        O  0.23253460  0.50722517  0.21447705    -0.87800
O900        O  0.17954869  0.96297090  0.21448479    -0.90600
C901        C  0.23083472  0.96164968  0.38858419     1.03100
C902        C  0.21725673  0.86319019  0.28959138     1.16100
C903        C  0.33553876  0.96988223  0.29824182     1.06800
O904        O  0.28154807  0.55657198  0.30916953    -0.92800
O905        O  0.24148937  0.57714364  0.24911705    -0.88500
O906        O  0.18525120  0.57813812  0.22766365    -0.81700
C907        C  0.21200436  0.59236681  0.23697861     1.13500
O908        O  0.29090739  0.90233542  0.19924871    -0.94800
Zr909      Zr  0.24205815  0.94881536  0.20402623     1.88900
O910        O  0.17553767  0.51434825  0.16339937    -0.71400
O911        O  0.30299040  0.53479970  0.22242583    -0.50700
O912        O  0.29279067  0.96317495  0.17180420    -0.95400
O913        O  0.22197245  0.90165430  0.17518657    -0.52600
O914        O  0.21846978  0.97182497  0.15064491    -0.71900
C915        C  0.19408006  0.49475346  0.14207820     1.00400
O916        O  0.12296196  0.56218382  0.20118352    -0.60700
O917        O  0.12275979  0.91891117  0.30797401    -0.55500
O918        O  0.10698889  0.51307982  0.23160499    -0.92200
O919        O  0.10317571  0.96087666  0.25085441    -0.90700
O920        O  0.13174386  0.98705397  0.35619590    -0.91000
O921        O  0.13106043  0.55108675  0.32904396    -0.89800
C922        C  0.08912136  0.98969646  0.24013525     1.19300
H923        H  0.18634417  0.93539359  0.33542300     0.35200
H924        H  0.19311533  0.55764623  0.28432266     0.46100
H925        H  0.16538127  0.95758527  0.19532984     0.39600
H926        H  0.29818245  0.95463214  0.24811903     0.36100
H927        H  0.18181586  0.55259079  0.38127710     0.27800
H928        H  0.31950744  0.54735519  0.23482794     0.33800
H929        H  0.29007995  0.95437235  0.14853669     0.39700
H930        H  0.13531781  0.99166726  0.38066023     0.34200
H931        H  0.10692870  0.90587261  0.29527602     0.33000
H932        H  0.12483498  0.88893034  0.23245866     0.34700
H933        H  0.20063173  0.91122727  0.16184784     0.33700
H934        H  0.12836450  0.55990324  0.30546934     0.37700
H935        H  0.11681105  0.57930701  0.21908438     0.30400
H936        H  0.31087010  0.89615747  0.34510786     0.34600
H937        H  0.29195073  0.89593620  0.17485054     0.37500
H938        H  0.13759604  0.90226386  0.32248396     0.30100
H939        H  0.13462654  0.57357529  0.18293241     0.43000
H940        H  0.25909769  0.56933083  0.31817661     0.33000
H941        H  0.21979659  0.54960587  0.36451626     0.40700
H942        H  0.21239483  0.88883934  0.19362268     0.32500
H943        H  0.31789653  0.51344941  0.21621295     0.32600
H944        H  0.31659509  0.88312213  0.30742171     0.32800
C945        C  0.15698863  0.70433888  0.23763323    -0.11500
C946        C  0.12469006  0.71016046  0.23779832    -0.13000
C947        C  0.20896273  0.70459945  0.20312463    -0.11500
C948        C  0.21589892  0.70847592  0.17348115    -0.13000
C949        C  0.20357664  0.65828912  0.23789225    -0.11500
C950        C  0.20776743  0.62818489  0.23649949    -0.13000
C951        C  0.19277158  0.57958929  0.03884416    -0.11500
C952        C  0.18743620  0.55113218  0.03899364    -0.13000
C953        C  0.18556659  0.50569429  0.07581013    -0.11500
C954        C  0.18824294  0.50046753  0.10613946    -0.13000
C955        C  0.11558952  0.51140301  0.02068771    -0.11500
C956        C  0.14609267  0.51387332  0.02773833    -0.13000
C957        C  0.48731733  0.70477701  0.10625219    -0.11500
C958        C  0.48981173  0.70007290  0.07584788    -0.13000
C959        C  0.05889982  0.69543327  0.02036249    -0.11500
C960        C  0.02842096  0.69288281  0.02764955    -0.12600
C961        C  0.48767968  0.65522539  0.03843705    -0.11500
C962        C  0.48185411  0.62692642  0.03787889    -0.13000
C963        C  0.47207013  0.54740656  0.23763169    -0.11500
C964        C  0.46797040  0.57749501  0.23589155    -0.13000
C965        C  0.05075351  0.99618721  0.23863153    -0.11500
C966        C  0.01863011  0.50141007  0.23794462    -0.13000
C967        C  0.46590047  0.50139059  0.20299285    -0.11500
C968        C  0.45854655  0.49821703  0.17332927    -0.13000
C969        C  0.21166374  0.96217660  0.01307910    -0.14600
C970        C  0.21021245  0.99526141  0.01767744    -0.29800
H971        H  0.19198745  0.94955969  0.02597730     0.14400
H972        H  0.23008089  0.50807216  0.00450944     0.15000
C973        C  0.23606795  0.90706061  0.49247484    -0.11500
C974        C  0.23150081  0.87836315  0.49316227    -0.13000
C975        C  0.30597391  0.94906894  0.01255826    -0.11500
C976        C  0.27588805  0.94591821  0.50416785    -0.13000
C977        C  0.23627302  0.95637213  0.42454397    -0.11500
C978        C  0.23803658  0.95195379  0.45500181    -0.13000
C979        C  0.46371715  0.74390982  0.01306428    -0.14600
C980        C  0.46503175  0.71080404  0.01750906    -0.29800
H981        H  0.48335167  0.75638539  0.02620980     0.14400
H982        H  0.44533016  0.69841861  0.00434097     0.15000
C983        C  0.43889651  0.74993168  0.42425925    -0.11500
C984        C  0.43714858  0.75465754  0.45471612    -0.13000
C985        C  0.36921901  0.75761087  0.01165337    -0.11500
C986        C  0.39922510  0.76138478  0.50394232    -0.13000
C987        C  0.43941267  0.79968486  0.49206846    -0.11500
C988        C  0.44424223  0.82829207  0.49278034    -0.13000
C989        C  0.21190313  0.74431850  0.26953950    -0.14600
C990        C  0.21403586  0.71086464  0.26593751    -0.29800
H991        H  0.19692852  0.76019154  0.25046522     0.14400
H992        H  0.22930662  0.69474383  0.28461076     0.15000
C993        C  0.30129424  0.74135995  0.29989301    -0.11500
C994        C  0.26911888  0.74890702  0.29895403    -0.13000
C995        C  0.20781070  0.75448667  0.36183388    -0.11500
C996        C  0.21543232  0.75552570  0.33194751    -0.13000
C997        C  0.22561270  0.79731833  0.29294666    -0.11500
C998        C  0.22202042  0.82737843  0.29114572    -0.13000
C999        C  0.46304765  0.96131622  0.26969151    -0.14600
C1000       C  0.46122678  0.99477036  0.26618020    -0.29800
H1001       H  0.47762969  0.94538240  0.25044275     0.14400
H1002       H  0.44634198  0.01086563  0.28510848     0.15000
C1003       C  0.44959901  0.90840322  0.29391876    -0.11500
C1004       C  0.45261064  0.87837488  0.29211551    -0.13000
C1005       C  0.46781153  0.95203938  0.36212843    -0.11500
C1006       C  0.46015992  0.95064643  0.33228368    -0.13000
C1007       C  0.40616498  0.95661797  0.29973569    -0.11500
C1008       C  0.37394098  0.96370765  0.30062326    -0.13000
C1009       C  0.44469311  0.94489167  0.79836989    -0.00700
C1010       C  0.23080122  0.76060847  0.79824865    -0.00700
C1011       C  0.43515031  0.76447023  0.99143826    -0.00700
C1012       C  0.24051651  0.94186415  0.99163461    -0.00700
C1013       C  0.47973990  0.51073799  0.73658141    -0.00700
C1014       C  0.99288687  0.69028324  0.53994837    -0.00700
C1015       C  0.18265826  0.51605372  0.53998264    -0.00700
C1016       C  0.19578748  0.69530895  0.73636400    -0.00700
Zr1017     Zr  0.42463872  0.94520219  0.97481388     2.17500
O1018       O  0.37891388  0.93624204  0.93312419    -0.49500
O1019       O  0.43220421  0.88453313  0.97869678    -0.72700
O1020       O  0.44448503  0.94495650  0.91529982    -0.79500
O1021       O  0.35291426  0.96261541  0.54567201    -0.81300
O1022       O  0.49772849  0.96446569  0.91124746    -0.76900
O1023       O  0.36222406  0.94762110  0.98985252    -0.88500
O1024       O  0.47411449  0.86660938  0.51909370    -0.74500
O1025       O  0.48744848  0.92969673  0.98239336    -0.84000
O1026       O  0.43221598  0.93007484  0.53399978    -0.83700
O1027       O  0.44944700  0.99460439  0.96040521    -0.70400
O1028       O  0.39934806  0.99317995  0.50795680    -0.82600
Zr1029     Zr  0.49758623  0.01143822  0.56014830     2.26400
Zr1030     Zr  0.01271723  0.97900873  0.96927380     2.06300
Zr1031     Zr  0.40865327  0.97829429  0.56668564     2.10000
Zr1032     Zr  0.49498208  0.91519445  0.54184830     1.78800
O1033       O  0.36283653  0.52351392  0.58490717    -0.91400
O1034       O  0.04838522  0.88103230  0.52005795    -0.39200
O1035       O  0.47169649  0.96295972  0.57497304    -0.75800
O1036       O  0.02272494  0.96294732  0.52803407    -0.94500
O1037       O  0.48822059  0.52725492  0.50120697    -0.87800
O1038       O  0.43418573  0.52736669  0.55260976    -0.90600
C1039       C  0.45059659  0.86187524  0.99690461     1.03100
C1040       C  0.34229071  0.95425723  0.51626540     1.16100
C1041       C  0.47078303  0.95324549  0.89819614     1.06800
O1042       O  0.06093233  0.93557362  0.95162980    -0.92800
O1043       O  0.06818521  0.99686204  0.98786106    -0.88500
O1044       O  0.05971669  0.51114624  0.54464266    -0.81700
C1045       C  0.07926089  0.00699039  0.51747205     1.13500
O1046       O  0.37347594  0.54507698  0.95677119    -0.94800
Zr1047     Zr  0.42515640  0.54152249  0.49374034     1.88900
O1048       O  0.48977073  0.57208950  0.55392366    -0.71400
O1049       O  0.02890414  0.52173957  0.93117474    -0.50700
O1050       O  0.43846793  0.56934457  0.94144362    -0.95400
O1051       O  0.37434384  0.57888313  0.51728611    -0.52600
O1052       O  0.44971621  0.58974720  0.51210501    -0.71900
C1053       C  0.47279010  0.59457061  0.53460633     1.00400
O1054       O  0.03487443  0.02433639  0.60786204    -0.60700
O1055       O  0.39013360  0.93793055  0.60649777    -0.55500
O1056       O  0.48178510  0.50679084  0.61921945    -0.92200
O1057       O  0.42698804  0.98955988  0.62454061    -0.90700
O1058       O  0.47740426  0.88350269  0.59011876    -0.91000
O1059       O  0.04233185  0.90457663  0.58385133    -0.89800
C1060       C  0.45632475  0.49753156  0.63671737     1.19300
H1061       H  0.41948394  0.91188417  0.53966820     0.35200
H1062       H  0.04781508  0.95604747  0.53273832     0.46100
H1063       H  0.42536265  0.54565994  0.56759377     0.39600
H1064       H  0.44475926  0.50094989  0.93699614     0.36100
H1065       H  0.04757504  0.85867043  0.52988361     0.27800
H1066       H  0.04617770  0.50963582  0.91483968     0.33800
H1067       H  0.42389964  0.59171694  0.94305330     0.39700
H1068       H  0.46427536  0.90046178  0.60549650     0.34200
H1069       H  0.36564965  0.94767188  0.61366144     0.33000
H1070       H  0.35816379  0.51822878  0.60899947     0.34700
H1071       H  0.37346156  0.59972763  0.50395369     0.33700
H1072       H  0.04154224  0.92588236  0.59635711     0.37700
H1073       H  0.05479088  0.00548012  0.60931089     0.30400
H1074       H  0.38900709  0.91626186  0.91983800     0.34600
H1075       H  0.36624123  0.56910271  0.95199950     0.37500
H1076       H  0.38672876  0.91834152  0.59250988     0.30100
H1077       H  0.04617321  0.04371908  0.60067695     0.43000
H1078       H  0.04928201  0.92016650  0.93735779     0.33000
H1079       H  0.04354625  0.87971676  0.99386732     0.40700
H1080       H  0.38185883  0.58492259  0.54035282     0.32500
H1081       H  0.50667244  0.52888539  0.91849561     0.32600
H1082       H  0.37711225  0.95509449  0.91684058     0.32800
Zr1083     Zr  0.41909947  0.77034760  0.80530637     2.17500
O1084       O  0.37645242  0.81807121  0.82435333    -0.49500
O1085       O  0.42593330  0.76466281  0.86756443    -0.72700
O1086       O  0.35705644  0.75892024  0.80691410    -0.79500
O1087       O  0.48689268  0.82819754  0.77692277    -0.81300
O1088       O  0.35442668  0.70682530  0.78650859    -0.76900
O1089       O  0.43163758  0.82777638  0.80006842    -0.88500
O1090       O  0.46896769  0.72103224  0.88029220    -0.74500
O1091       O  0.43102102  0.71213663  0.81725209    -0.84000
O1092       O  0.48190088  0.75825200  0.81594668    -0.83700
O1093       O  0.40140521  0.74374988  0.75420802    -0.70400
O1094       O  0.44860060  0.78433974  0.75418587    -0.82600
Zr1095     Zr  0.00584339  0.68454363  0.72602572     2.26400
Zr1096     Zr  0.41413914  0.68522546  0.76650310     2.06300
Zr1097     Zr  0.01133039  0.77066241  0.76447465     2.10000
Zr1098     Zr  0.49402141  0.70000312  0.82691695     1.78800
O1099       O  0.03083144  0.80515132  0.71939814    -0.91400
O1100       O  0.48111516  0.65126356  0.85818066    -0.39200
O1101       O  0.02358263  0.71228011  0.77593557    -0.75800
O1102       O  0.47704207  0.67119595  0.77810065    -0.94500
O1103       O  0.44333515  0.69820344  0.71489530    -0.87800
O1104       O  0.49506854  0.74308255  0.71417237    -0.90600
C1105       C  0.44490011  0.74514226  0.88870155     1.03100
C1106       C  0.45730515  0.84272816  0.78947831     1.16100
C1107       C  0.34002541  0.73485542  0.79892319     1.06800
O1108       O  0.39475588  0.64674107  0.80771957    -0.92800
O1109       O  0.43487917  0.62834536  0.74939727    -0.88500
O1110       O  0.49084374  0.62761647  0.72752103    -0.81700
C1111       C  0.46428484  0.61326511  0.73706391     1.13500
O1112       O  0.38389575  0.80361004  0.69955447    -0.94800
Zr1113     Zr  0.43240165  0.75676697  0.70409998     1.88900
O1114       O  0.00002638  0.69108547  0.66373737    -0.71400
O1115       O  0.37324463  0.67116671  0.72262986    -0.50700
O1116       O  0.38210719  0.73945548  0.67346524    -0.95400
O1117       O  0.45001722  0.80473640  0.67466494    -0.52600
O1118       O  0.45689933  0.73484554  0.65068172    -0.71900
C1119       C  0.48123821  0.71083244  0.64244203     1.00400
O1120       O  0.05432065  0.64255945  0.70550296    -0.60700
O1121       O  0.05258108  0.78825041  0.80620092    -0.55500
O1122       O  0.06855270  0.69358853  0.73081912    -0.92200
O1123       O  0.07169245  0.74615810  0.74975743    -0.90700
O1124       O  0.04330506  0.71988909  0.85631584    -0.91000
O1125       O  0.04530119  0.65550804  0.83215958    -0.89800
C1126       C  0.08593822  0.71739855  0.73904296     1.19300
H1127       H  0.48871885  0.77112295  0.83492407     0.35200
H1128       H  0.48348054  0.64819123  0.78469562     0.46100
H1129       H  0.00925406  0.74821199  0.69501622     0.39600
H1130       H  0.37655990  0.75059357  0.74849029     0.36100
H1131       H  0.49185478  0.65310522  0.88102116     0.27800
H1132       H  0.35630900  0.65897864  0.73491321     0.33800
H1133       H  0.38350407  0.74841828  0.65008762     0.39700
H1134       H  0.04491932  0.70844356  0.87869782     0.34200
H1135       H  0.06514821  0.80432602  0.79379468     0.33000
H1136       H  0.05122940  0.81455366  0.72936380     0.34700
H1137       H  0.47509614  0.79757339  0.66743614     0.33700
H1138       H  0.05653806  0.65407602  0.80927823     0.37700
H1139       H  0.05819285  0.62527551  0.72351978     0.30400
H1140       H  0.36400147  0.81019811  0.84431389     0.34600
H1141       H  0.37833236  0.80607000  0.67491932     0.37500
H1142       H  0.03736559  0.80204801  0.82298047     0.30100
H1143       H  0.04432039  0.63160200  0.68591193     0.43000
H1144       H  0.41720070  0.63466563  0.81746383     0.33000
H1145       H  0.45497529  0.65560110  0.86228189     0.40700
H1146       H  0.45173279  0.82134494  0.69287476     0.32500
H1147       H  0.35878771  0.69270063  0.71628887     0.32600
H1148       H  0.35799682  0.82203030  0.80625576     0.32800
Zr1149     Zr  0.25028717  0.76119976  0.97480542     2.17500
O1150       O  0.29624242  0.76628898  0.93198695    -0.49500
O1151       O  0.24344644  0.82181086  0.97846253    -0.72700
O1152       O  0.22988731  0.76244451  0.91546253    -0.79500
O1153       O  0.32259392  0.74354008  0.54509498    -0.81300
O1154       O  0.17791090  0.74081411  0.91101523    -0.76900
O1155       O  0.31249943  0.76062997  0.98939117    -0.88500
O1156       O  0.20298269  0.83962391  0.52044862    -0.74500
O1157       O  0.18734686  0.77665200  0.98202246    -0.84000
O1158       O  0.24292537  0.77676138  0.53362807    -0.83700
O1159       O  0.22558851  0.71173442  0.96067614    -0.70400
O1160       O  0.27605399  0.71378813  0.50781381    -0.82600
Zr1161     Zr  0.17801760  0.69506191  0.55981232     2.26400
Zr1162     Zr  0.16216340  0.72713101  0.96899026     2.06300
Zr1163     Zr  0.26658430  0.72880083  0.56647739     2.10000
Zr1164     Zr  0.18012274  0.79122876  0.54143231     1.78800
O1165       O  0.31153885  0.68409351  0.58754857    -0.91400
O1166       O  0.12774607  0.82665369  0.51851433    -0.39200
O1167       O  0.20356107  0.74369825  0.57462662    -0.75800
O1168       O  0.15280319  0.74360338  0.52770010    -0.94500
O1169       O  0.18727007  0.67901165  0.50183519    -0.87800
O1170       O  0.24106156  0.67967687  0.55328603    -0.90600
C1171       C  0.22537585  0.84449937  0.99686421     1.03100
C1172       C  0.33265380  0.75399153  0.51629920     1.16100
C1173       C  0.20435379  0.75298429  0.89816390     1.06800
O1174       O  0.11381257  0.76934311  0.94925339    -0.92800
O1175       O  0.10654018  0.70944170  0.98814504    -0.88500
O1176       O  0.11565731  0.69517433  0.54477194    -0.81700
C1177       C  0.09659026  0.69958911  0.51768134     1.13500
O1178       O  0.30275722  0.65676977  0.95900334    -0.94800
Zr1179     Zr  0.25034961  0.66504247  0.49470626     1.88900
O1180       O  0.18499756  0.63471453  0.55457014    -0.71400
O1181       O  0.14640074  0.68360625  0.93155917    -0.50700
O1182       O  0.23582061  0.63859169  0.94162581    -0.95400
O1183       O  0.30006074  0.62850514  0.52108011    -0.52600
O1184       O  0.22490081  0.61716575  0.51266512    -0.71900
C1185       C  0.20182439  0.61229356  0.53511944     1.00400
O1186       O  0.14212882  0.68042435  0.60776022    -0.60700
O1187       O  0.28503019  0.76991136  0.60547062    -0.55500
O1188       O  0.19398627  0.70004007  0.61949826    -0.92200
O1189       O  0.24726947  0.71937774  0.62432930    -0.90700
O1190       O  0.19519494  0.82094136  0.59215863    -0.91000
O1191       O  0.13179701  0.79986215  0.58312706    -0.89800
C1192       C  0.21957261  0.70911985  0.63694874     1.19300
H1193       H  0.25565488  0.79494248  0.53932494     0.35200
H1194       H  0.12767635  0.75051350  0.53218567     0.46100
H1195       H  0.24993819  0.66149336  0.56839011     0.39600
H1196       H  0.23126670  0.70479647  0.93753633     0.36100
H1197       H  0.12777046  0.84850579  0.52976492     0.27800
H1198       H  0.12699879  0.69502005  0.91687327     0.33800
H1199       H  0.24189071  0.61435535  0.94592900     0.39700
H1200       H  0.18060546  0.84329861  0.59038751     0.34200
H1201       H  0.30857697  0.75940492  0.61436880     0.33000
H1202       H  0.31952766  0.69244630  0.60954532     0.34700
H1203       H  0.28960615  0.61742540  0.54031332     0.33700
H1204       H  0.13620860  0.78005780  0.59817652     0.37700
H1205       H  0.12198657  0.69897921  0.61002190     0.30400
H1206       H  0.28744214  0.78640055  0.91833151     0.34600
H1207       H  0.30549486  0.63333497  0.95112572     0.37500
H1208       H  0.29055159  0.78841007  0.59090734     0.30100
H1209       H  0.13101256  0.66110080  0.60007130     0.43000
H1210       H  0.10195504  0.77870780  0.97039282     0.33000
H1211       H  0.13202498  0.82996514  0.99421076     0.40700
H1212       H  0.31475725  0.64377684  0.53201862     0.32500
H1213       H  0.16712587  0.67803529  0.91605294     0.32600
H1214       H  0.29648867  0.74719781  0.91618157     0.32800
Zr1215     Zr  0.25616732  0.93507123  0.80572360     2.17500
O1216       O  0.29805136  0.88710811  0.82553339    -0.49500
O1217       O  0.24957142  0.94138185  0.86792421    -0.72700
O1218       O  0.31834558  0.94583369  0.80727193    -0.79500
O1219       O  0.18854275  0.87748941  0.77829556    -0.81300
O1220       O  0.32107369  0.99810364  0.78738028    -0.76900
O1221       O  0.24445767  0.87758021  0.80000762    -0.88500
O1222       O  0.20629854  0.98482839  0.88062682    -0.74500
O1223       O  0.24425123  0.99321099  0.81778641    -0.84000
O1224       O  0.19334371  0.94738822  0.81636480    -0.83700
O1225       O  0.27403802  0.96172221  0.75476431    -0.70400
O1226       O  0.22670373  0.92101894  0.75459417    -0.82600
Zr1227     Zr  0.16968484  0.52142684  0.72628501     2.26400
Zr1228     Zr  0.26163624  0.52050858  0.76685453     2.06300
Zr1229     Zr  0.16397797  0.93475796  0.76478231     2.10000
Zr1230     Zr  0.18129457  0.00568951  0.82724100     1.78800
O1231       O  0.14394345  0.90037522  0.71988581    -0.91400
O1232       O  0.19782752  0.55411048  0.85770735    -0.39200
O1233       O  0.15194689  0.99319125  0.77607744    -0.75800
O1234       O  0.19865409  0.53484596  0.77842377    -0.94500
O1235       O  0.23224042  0.50778630  0.71519957    -0.87800
O1236       O  0.18046969  0.96254233  0.71453532    -0.90600
C1237       C  0.23064527  0.96096338  0.88902543     1.03100
C1238       C  0.21846259  0.86278433  0.79007389     1.16100
C1239       C  0.33541660  0.96993689  0.79957964     1.06800
O1240       O  0.28172805  0.55656389  0.81012371    -0.92800
O1241       O  0.24062937  0.57767963  0.75041623    -0.88500
O1242       O  0.18487174  0.57842930  0.72799384    -0.81700
C1243       C  0.21134395  0.59276847  0.73775313     1.13500
O1244       O  0.29210946  0.90227214  0.69932578    -0.94800
Zr1245     Zr  0.24314820  0.94860938  0.70459192     1.88900
O1246       O  0.17572345  0.51529951  0.66393996    -0.71400
O1247       O  0.30271927  0.53579975  0.72377500    -0.50700
O1248       O  0.29347268  0.96533103  0.67349937    -0.95400
O1249       O  0.22434181  0.90091829  0.67558442    -0.52600
O1250       O  0.21938122  0.97048253  0.65094649    -0.71900
C1251       C  0.19442435  0.49584837  0.64256034     1.00400
O1252       O  0.12191045  0.56323427  0.70412272    -0.60700
O1253       O  0.12243681  0.91642183  0.80576905    -0.55500
O1254       O  0.10682605  0.51289654  0.73072266    -0.92200
O1255       O  0.10363609  0.96062855  0.75121479    -0.90700
O1256       O  0.13176952  0.98546113  0.85632937    -0.91000
O1257       O  0.13126391  0.55017424  0.83500569    -0.89800
C1258       C  0.08957414  0.98924653  0.73992074     1.19300
H1259       H  0.18651611  0.93457195  0.83537822     0.35200
H1260       H  0.19224972  0.55781898  0.78512616     0.46100
H1261       H  0.16640987  0.95729511  0.69525202     0.39600
H1262       H  0.29887220  0.95485620  0.74903185     0.36100
H1263       H  0.18588628  0.55386142  0.88017640     0.27800
H1264       H  0.31902707  0.54838713  0.73642856     0.33800
H1265       H  0.29043478  0.95840313  0.64958592     0.39700
H1266       H  0.13077756  0.99610345  0.87911241     0.34200
H1267       H  0.11209853  0.89858201  0.79383052     0.33000
H1268       H  0.12144342  0.89380357  0.72867381     0.34700
H1269       H  0.19858887  0.90755412  0.67054256     0.33700
H1270       H  0.12670935  0.55993840  0.81198162     0.37700
H1271       H  0.11636323  0.57986839  0.72258852     0.30400
H1272       H  0.31046772  0.89503142  0.84548889     0.34600
H1273       H  0.29479077  0.89777922  0.67455505     0.37500
H1274       H  0.13758066  0.90462042  0.82390616     0.30100
H1275       H  0.13290320  0.57510374  0.68579089     0.43000
H1276       H  0.25981453  0.57149228  0.81726033     0.33000
H1277       H  0.22363494  0.54806201  0.86289947     0.40700
H1278       H  0.22489236  0.88357024  0.69343165     0.32500
H1279       H  0.31781392  0.51456379  0.71749714     0.32600
H1280       H  0.31665352  0.88274646  0.80760910     0.32800
C1281       C  0.15667755  0.70520407  0.73730015    -0.11500
C1282       C  0.12436590  0.71110871  0.73742181    -0.13000
C1283       C  0.20897184  0.70450013  0.70297531    -0.11500
C1284       C  0.21616347  0.70795981  0.67333867    -0.13000
C1285       C  0.20274310  0.65866624  0.73799517    -0.11500
C1286       C  0.20698013  0.62856262  0.73696833    -0.13000
C1287       C  0.19363934  0.57925409  0.53785989    -0.11500
C1288       C  0.18765930  0.55101158  0.53843197    -0.13000
C1289       C  0.18622955  0.50626005  0.57615394    -0.11500
C1290       C  0.18878918  0.50158823  0.60658932    -0.13000
C1291       C  0.11591189  0.51019403  0.52143273    -0.11500
C1292       C  0.14632190  0.51325024  0.52834275    -0.13000
C1293       C  0.48701572  0.70533308  0.60646449    -0.11500
C1294       C  0.48942781  0.70058120  0.57603801    -0.13000
C1295       C  0.05978387  0.69536713  0.52106413    -0.11500
C1296       C  0.02926989  0.69274661  0.52810824    -0.12600
C1297       C  0.48707553  0.65577975  0.53847944    -0.11500
C1298       C  0.48086367  0.62762296  0.53762658    -0.13000
C1299       C  0.47259781  0.54738180  0.73810179    -0.11500
C1300       C  0.46860033  0.57746643  0.73661064    -0.13000
C1301       C  0.05115144  0.99573513  0.73828253    -0.11500
C1302       C  0.01856613  0.50135685  0.73759925    -0.13000
C1303       C  0.46693272  0.50147082  0.70298695    -0.11500
C1304       C  0.45993418  0.49828883  0.67320612    -0.13000
C1305       C  0.21161201  0.96269262  0.51272499    -0.14600
C1306       C  0.21041923  0.99573372  0.51757704    -0.29800
H1307       H  0.19198545  0.95010873  0.52574387     0.14400
H1308       H  0.23003374  0.50801523  0.50429615     0.15000
C1309       C  0.23651708  0.90665900  0.99289653    -0.11500
C1310       C  0.23214899  0.87794189  0.99331944    -0.13000
C1311       C  0.30570362  0.94990154  0.51217589    -0.11500
C1312       C  0.27603371  0.94548335  0.00467803    -0.13000
C1313       C  0.23627467  0.95581651  0.92498426    -0.11500
C1314       C  0.23825657  0.95148403  0.95544641    -0.13000
C1315       C  0.46343300  0.74417564  0.51265635    -0.14600
C1316       C  0.46446707  0.71120342  0.51766736    -0.29800
H1317       H  0.48327273  0.75667715  0.52544769     0.14400
H1318       H  0.44455280  0.69881179  0.50482492     0.15000
C1319       C  0.43967954  0.75064596  0.92469826    -0.11500
C1320       C  0.43778491  0.75505217  0.95517409    -0.13000
C1321       C  0.36928519  0.75804022  0.51212290    -0.11500
C1322       C  0.39935131  0.76093128  0.00400634    -0.13000
C1323       C  0.43937769  0.79965752  0.99301459    -0.11500
C1324       C  0.44393091  0.82835100  0.99344579    -0.13000
C1325       C  0.21257008  0.74435113  0.76928373    -0.14600
C1326       C  0.21392851  0.71098052  0.76578350    -0.29800
H1327       H  0.19820051  0.76041683  0.75000453     0.14400
H1328       H  0.22863473  0.69470578  0.78468036     0.15000
C1329       C  0.30163870  0.74087231  0.80106966    -0.11500
C1330       C  0.26947675  0.74825362  0.79968620    -0.13000
C1331       C  0.20732520  0.75418159  0.86162646    -0.11500
C1332       C  0.21527095  0.75521751  0.83182199    -0.13000
C1333       C  0.22664590  0.79694965  0.79328113    -0.11500
C1334       C  0.22331639  0.82699173  0.79160557    -0.13000
C1335       C  0.46222848  0.96174337  0.76932600    -0.14600
C1336       C  0.46086609  0.99519754  0.76639535    -0.29800
H1337       H  0.47629547  0.94602506  0.74962322     0.14400
H1338       H  0.44644073  0.01115436  0.78570210     0.15000
C1339       C  0.44922945  0.90855319  0.79312265    -0.11500
C1340       C  0.45251070  0.87851622  0.79123918    -0.13000
C1341       C  0.46828060  0.95166626  0.86164137    -0.11500
C1342       C  0.46048808  0.95029719  0.83182605    -0.13000
C1343       C  0.40595551  0.95674343  0.80029886    -0.11500
C1344       C  0.37378223  0.96386508  0.80181652    -0.13000
C1345       C  0.94506369  0.44491351  0.29840422    -0.00700
C1346       C  0.73003406  0.26131403  0.29830631    -0.00700
C1347       C  0.93487710  0.26431773  0.49127859    -0.00700
C1348       C  0.74014600  0.44218160  0.49104696    -0.00700
C1349       C  0.97933933  0.01080789  0.23663958    -0.00700
C1350       C  0.49286394  0.19026799  0.04002752    -0.00700
C1351       C  0.68231376  0.01626642  0.04016306    -0.00700
C1352       C  0.69600862  0.19528975  0.23674277    -0.00700
Zr1353     Zr  0.92489894  0.44488369  0.47490673     2.17500
O1354       O  0.87894248  0.43508691  0.43382101    -0.49500
O1355       O  0.93242265  0.38427559  0.47855506    -0.72700
O1356       O  0.94484425  0.44447137  0.41543599    -0.79500
O1357       O  0.85311146  0.46262616  0.04513462    -0.81300
O1358       O  0.99828408  0.46362321  0.41143953    -0.76900
O1359       O  0.86234786  0.44724630  0.48917222    -0.88500
O1360       O  0.97325397  0.36700804  0.01920649    -0.74500
O1361       O  0.98767181  0.42904392  0.48260526    -0.84000
O1362       O  0.93215745  0.43040419  0.03348417    -0.83700
O1363       O  0.94987085  0.49421937  0.46025619    -0.70400
O1364       O  0.89942380  0.49326005  0.00759359    -0.82600
Zr1365     Zr  0.99746784  0.51168313  0.05958462     2.26400
Zr1366     Zr  0.51298755  0.47913876  0.46914297     2.06300
Zr1367     Zr  0.90877037  0.47853913  0.06630459     2.10000
Zr1368     Zr  0.99483476  0.41543395  0.04160659     1.78800
O1369       O  0.86255588  0.02387460  0.08423611    -0.91400
O1370       O  0.54854532  0.38138099  0.01899775    -0.39200
O1371       O  0.97173367  0.46325284  0.07459756    -0.75800
O1372       O  0.52263465  0.46227670  0.02810214    -0.94500
O1373       O  0.98854143  0.02717302  0.00170183    -0.87800
O1374       O  0.93440150  0.02731130  0.05327183    -0.90600
C1375       C  0.95048845  0.36154756  0.49688377     1.03100
C1376       C  0.84267999  0.45311846  0.01606275     1.16100
C1377       C  0.97123216  0.45261223  0.39835738     1.06800
O1378       O  0.56114037  0.43680173  0.44928924    -0.92800
O1379       O  0.56845836  0.49674728  0.48870651    -0.88500
O1380       O  0.55938944  0.01237740  0.04401218    -0.81700
C1381       C  0.57892969  0.50614634  0.01750362     1.13500
O1382       O  0.87497376  0.04898267  0.45542836    -0.94800
Zr1383     Zr  0.92553090  0.04162055  0.99447718     1.88900
O1384       O  0.98895962  0.07226317  0.05616192    -0.71400
O1385       O  0.52826946  0.02123912  0.43093893    -0.50700
O1386       O  0.94050772  0.07066556  0.44264306    -0.95400
O1387       O  0.87568264  0.07985784  0.01852637    -0.52600
O1388       O  0.95153346  0.08928387  0.01214561    -0.71900
C1389       C  0.97328113  0.09444795  0.03574620     1.00400
O1390       O  0.53395741  0.52456981  0.10768869    -0.60700
O1391       O  0.89080973  0.43865544  0.10696207    -0.55500
O1392       O  0.98279063  0.00440286  0.11960659    -0.92200
O1393       O  0.92790022  0.48864229  0.12415542    -0.90700
O1394       O  0.97628238  0.38630567  0.09134660    -0.91000
O1395       O  0.54254871  0.40528895  0.08374330    -0.89800
C1396       C  0.95672253  0.99618590  0.13704286     1.19300
H1397       H  0.91932859  0.41227800  0.03914560     0.35200
H1398       H  0.54768889  0.45536303  0.03295480     0.46100
H1399       H  0.92566664  0.04551487  0.06838962     0.39600
H1400       H  0.94443826  0.00164019  0.43735524     0.36100
H1401       H  0.55024632  0.35989112  0.03131146     0.27800
H1402       H  0.54552355  0.00907042  0.41463045     0.33800
H1403       H  0.93253821  0.09463152  0.44723138     0.39700
H1404       H  0.99004359  0.36356174  0.08989597     0.34200
H1405       H  0.86570940  0.44751274  0.11291378     0.33000
H1406       H  0.86283068  0.02303571  0.10947875     0.34700
H1407       H  0.87640935  0.10127115  0.00661133     0.33700
H1408       H  0.53600306  0.42285390  0.10113162     0.37700
H1409       H  0.55420931  0.50603734  0.10924402     0.30400
H1410       H  0.88877310  0.41441976  0.42149878     0.34600
H1411       H  0.87012980  0.07306062  0.44994498     0.37500
H1412       H  0.88921875  0.41822628  0.09361401     0.30100
H1413       H  0.54482920  0.54417217  0.10040902     0.43000
H1414       H  0.57297258  0.42733216  0.47039939     0.33000
H1415       H  0.54125918  0.37555025  0.49450807     0.40700
H1416       H  0.88260179  0.08417695  0.04226328     0.32500
H1417       H  0.00377155  0.03051886  0.41894070     0.32600
H1418       H  0.87762148  0.45313467  0.41664382     0.32800
Zr1419     Zr  0.91899582  0.27055308  0.30492514     2.17500
O1420       O  0.87642384  0.31905743  0.32213451    -0.49500
O1421       O  0.92473001  0.26480603  0.36730639    -0.72700
O1422       O  0.85687433  0.25917937  0.30667820    -0.79500
O1423       O  0.98725482  0.32811406  0.27757709    -0.81300
O1424       O  0.85378613  0.20760697  0.28510434    -0.76900
O1425       O  0.93164059  0.32791472  0.29998001    -0.88500
O1426       O  0.96796400  0.22138364  0.38018833    -0.74500
O1427       O  0.93068715  0.21240874  0.31706671    -0.84000
O1428       O  0.98173320  0.25819943  0.31626478    -0.83700
O1429       O  0.90163278  0.24388982  0.25377821    -0.70400
O1430       O  0.94903401  0.28436719  0.25397087    -0.82600
Zr1431     Zr  0.50641896  0.18444600  0.22671837     2.26400
Zr1432     Zr  0.91396392  0.18539466  0.26639518     2.06300
Zr1433     Zr  0.51170529  0.27056372  0.26504814     2.10000
Zr1434     Zr  0.99356153  0.19988649  0.32721651     1.78800
O1435       O  0.53145770  0.30554779  0.22057217    -0.91400
O1436       O  0.97926553  0.15204886  0.35909580    -0.39200
O1437       O  0.52392208  0.21220051  0.27681970    -0.75800
O1438       O  0.97681304  0.17110379  0.27822439    -0.94500
O1439       O  0.94369523  0.19809368  0.21494416    -0.87800
O1440       O  0.99568411  0.24296222  0.21456869    -0.90600
C1441       C  0.94364235  0.24529255  0.38850683     1.03100
C1442       C  0.95752910  0.34275165  0.28976790     1.16100
C1443       C  0.83955982  0.23549613  0.29802286     1.06800
O1444       O  0.89627416  0.14762671  0.30929840    -0.92800
O1445       O  0.93446865  0.12853217  0.24907883    -0.88500
O1446       O  0.99049801  0.12764095  0.22727869    -0.81700
C1447       C  0.96379542  0.11338680  0.23663006     1.13500
O1448       O  0.88365062  0.30230139  0.19770515    -0.94800
Zr1449     Zr  0.93312365  0.25656214  0.20383212     1.88900
O1450       O  0.50114044  0.19055270  0.16424216    -0.71400
O1451       O  0.87292584  0.16993189  0.22336699    -0.50700
O1452       O  0.88339103  0.23923331  0.17234344    -0.95400
O1453       O  0.95168682  0.30364397  0.17353393    -0.52600
O1454       O  0.95761008  0.23410010  0.15071325    -0.71900
C1455       C  0.98236808  0.21046521  0.14258893     1.00400
O1456       O  0.55557436  0.14235036  0.20775454    -0.60700
O1457       O  0.55070200  0.28899510  0.30832066    -0.55500
O1458       O  0.56898552  0.19347004  0.23181581    -0.92200
O1459       O  0.57210300  0.24615892  0.25036959    -0.90700
O1460       O  0.54231204  0.21874342  0.35870493    -0.91000
O1461       O  0.54369095  0.15484205  0.33407446    -0.89800
C1462       C  0.58633373  0.21730870  0.23990848     1.19300
H1463       H  0.98842329  0.27102191  0.33533787     0.35200
H1464       H  0.98308083  0.14805261  0.28472423     0.46100
H1465       H  0.51004430  0.24815163  0.19551032     0.39600
H1466       H  0.87684247  0.25087028  0.24794151     0.36100
H1467       H  0.98975348  0.15411298  0.38201675     0.27800
H1468       H  0.85625722  0.15782460  0.23612298     0.33800
H1469       H  0.88554066  0.24770869  0.14885565     0.39700
H1470       H  0.54199752  0.20816490  0.38145212     0.34200
H1471       H  0.56662215  0.26852256  0.31548665     0.33000
H1472       H  0.54734749  0.31916257  0.23240469     0.34700
H1473       H  0.97603197  0.29548223  0.16484665     0.33700
H1474       H  0.55367010  0.15105230  0.31080544     0.37700
H1475       H  0.55941974  0.12569399  0.22637977     0.30400
H1476       H  0.86449703  0.31216772  0.34288109     0.34600
H1477       H  0.88139588  0.30678595  0.17290360     0.37500
H1478       H  0.56650641  0.30206627  0.29563005     0.30100
H1479       H  0.54596340  0.13061591  0.18849630     0.43000
H1480       H  0.89183048  0.16128552  0.33022311     0.33000
H1481       H  0.95307773  0.15680059  0.36281975     0.40700
H1482       H  0.95543415  0.31976870  0.19165199     0.32500
H1483       H  0.85821362  0.19120505  0.21658750     0.32600
H1484       H  0.85756926  0.32193323  0.30435866     0.32800
Zr1485     Zr  0.75054477  0.26137707  0.47514329     2.17500
O1486       O  0.79564911  0.27055679  0.43283756    -0.49500
O1487       O  0.74367401  0.32200022  0.47989259    -0.72700
O1488       O  0.73030110  0.26247485  0.41577555    -0.79500
O1489       O  0.82235672  0.24416891  0.04506523    -0.81300
O1490       O  0.67770370  0.24189864  0.41136057    -0.76900
O1491       O  0.81324749  0.25813988  0.48923489    -0.88500
O1492       O  0.70063707  0.34019959  0.01804855    -0.74500
O1493       O  0.68767216  0.27689197  0.48260107    -0.84000
O1494       O  0.74241405  0.27718256  0.03344458    -0.83700
O1495       O  0.72580155  0.21196047  0.46042629    -0.70400
O1496       O  0.77591911  0.21409317  0.00817118    -0.82600
Zr1497     Zr  0.67767466  0.19549353  0.05993246     2.26400
Zr1498     Zr  0.66244641  0.22749094  0.46923218     2.06300
Zr1499     Zr  0.76626396  0.22949751  0.06667469     2.10000
Zr1500     Zr  0.67947931  0.29156865  0.04059570     1.78800
O1501       O  0.81143275  0.18515411  0.08814751    -0.91400
O1502       O  0.62504810  0.32304774  0.01684271    -0.39200
O1503       O  0.70308750  0.24435659  0.07424934    -0.75800
O1504       O  0.65227991  0.24376446  0.02755570    -0.94500
O1505       O  0.68713408  0.17931720  0.00205649    -0.87800
O1506       O  0.74081431  0.18022749  0.05368164    -0.90600
C1507       C  0.72483313  0.34478721  0.49760300     1.03100
C1508       C  0.83273502  0.25398262  0.01610225     1.16100
C1509       C  0.70440229  0.25366611  0.39850555     1.06800
O1510       O  0.61392487  0.26914958  0.44877964    -0.92800
O1511       O  0.60676521  0.21014825  0.48851048    -0.88500
O1512       O  0.61566727  0.19441240  0.04398247    -0.81700
C1513       C  0.59631365  0.19958157  0.01712071     1.13500
O1514       O  0.80454745  0.15734977  0.46076264    -0.94800
Zr1515     Zr  0.75020631  0.16536515  0.99514625     1.88900
O1516       O  0.68483834  0.13504924  0.05481656    -0.71400
O1517       O  0.64735634  0.18315981  0.43259588    -0.50700
O1518       O  0.73697805  0.13863138  0.44059542    -0.95400
O1519       O  0.79906435  0.12798546  0.02174945    -0.52600
O1520       O  0.72371248  0.11768439  0.01201472    -0.71900
C1521       C  0.70112287  0.11270216  0.03491872     1.00400
O1522       O  0.64096313  0.18213771  0.10781757    -0.60700
O1523       O  0.78507643  0.27044989  0.10568862    -0.55500
O1524       O  0.69361250  0.20077879  0.11970013    -0.92200
O1525       O  0.74697679  0.22001038  0.12456524    -0.90700
O1526       O  0.69469732  0.32362180  0.08957540    -0.91000
O1527       O  0.63304765  0.30135776  0.08405738    -0.89800
C1528       C  0.71922633  0.20982239  0.13718792     1.19300
H1529       H  0.75490880  0.29552152  0.03914198     0.35200
H1530       H  0.62714224  0.25054814  0.03210273     0.46100
H1531       H  0.74969812  0.16210591  0.06885936     0.39600
H1532       H  0.73134083  0.20514632  0.43722577     0.36100
H1533       H  0.62261043  0.34495421  0.02843167     0.27800
H1534       H  0.62937809  0.19449512  0.41642433     0.33800
H1535       H  0.74155399  0.11437476  0.44524685     0.39700
H1536       H  0.68260964  0.34664992  0.08533262     0.34200
H1537       H  0.80958727  0.26080090  0.11286655     0.33000
H1538       H  0.82734997  0.19668252  0.10247365     0.34700
H1539       H  0.78808111  0.11675483  0.04054883     0.33700
H1540       H  0.63355086  0.27946681  0.09537457     0.37700
H1541       H  0.61937084  0.19933662  0.10793342     0.30400
H1542       H  0.78525198  0.29022965  0.41923787     0.34600
H1543       H  0.80628031  0.13498803  0.45021790     0.37500
H1544       H  0.78843816  0.28982889  0.09136474     0.30100
H1545       H  0.63221898  0.16115607  0.10143923     0.43000
H1546       H  0.60126003  0.27806731  0.46970378     0.33000
H1547       H  0.63209513  0.33077445  0.49579999     0.40700
H1548       H  0.81372249  0.14292625  0.03329151     0.32500
H1549       H  0.66900915  0.17637026  0.41855679     0.32600
H1550       H  0.79773539  0.25141162  0.41689595     0.32800
Zr1551     Zr  0.75604479  0.43520349  0.30473299     2.17500
O1552       O  0.79771624  0.38679215  0.32377411    -0.49500
O1553       O  0.74961390  0.44094596  0.36702734    -0.72700
O1554       O  0.81836020  0.44591634  0.30649641    -0.79500
O1555       O  0.68638981  0.37827101  0.27847720    -0.81300
O1556       O  0.82152232  0.49760792  0.28524132    -0.76900
O1557       O  0.74294097  0.37807198  0.29868366    -0.88500
O1558       O  0.70722715  0.48510727  0.37978406    -0.74500
O1559       O  0.74474030  0.49341538  0.31665240    -0.84000
O1560       O  0.69340218  0.44825358  0.31598625    -0.83700
O1561       O  0.77393733  0.46165174  0.25362994    -0.70400
O1562       O  0.72602300  0.42137710  0.25388225    -0.82600
Zr1563     Zr  0.66950368  0.02133977  0.22632825     2.26400
Zr1564     Zr  0.76145410  0.02054712  0.26677478     2.06300
Zr1565     Zr  0.66342464  0.43564599  0.26479830     2.10000
Zr1566     Zr  0.68196451  0.50658356  0.32667850     1.78800
O1567       O  0.64247357  0.40075456  0.22090130    -0.91400
O1568       O  0.69446418  0.05492165  0.35838716    -0.39200
O1569       O  0.65159237  0.49412480  0.27593947    -0.75800
O1570       O  0.69856204  0.03488965  0.27828590    -0.94500
O1571       O  0.73207670  0.00763637  0.21520895    -0.87800
O1572       O  0.68010504  0.46275052  0.21423056    -0.90600
C1573       C  0.73105030  0.46079323  0.38816544     1.03100
C1574       C  0.71651276  0.36343686  0.28955875     1.16100
C1575       C  0.83565424  0.46972444  0.29819805     1.06800
O1576       O  0.78017571  0.05805994  0.30938702    -0.92800
O1577       O  0.74042148  0.07759898  0.25014104    -0.88500
O1578       O  0.68474681  0.07840696  0.22748945    -0.81700
C1579       C  0.71122864  0.09271889  0.23734935     1.13500
O1580       O  0.79159280  0.40231064  0.19838878    -0.94800
Zr1581     Zr  0.74267583  0.44868245  0.20372053     1.88900
O1582       O  0.67513443  0.01463534  0.16402973    -0.71400
O1583       O  0.80186186  0.03650888  0.22341223    -0.50700
O1584       O  0.79339990  0.46528455  0.17314376    -0.95400
O1585       O  0.72411044  0.40108238  0.17439833    -0.52600
O1586       O  0.71886234  0.47083752  0.15016606    -0.71900
C1587       C  0.69426514  0.99549920  0.14267367     1.00400
O1588       O  0.62081728  0.06260900  0.20495295    -0.60700
O1589       O  0.62303616  0.41940724  0.30815831    -0.55500
O1590       O  0.60656424  0.01359258  0.23212426    -0.92200
O1591       O  0.60329141  0.46040322  0.24954071    -0.90700
O1592       O  0.63201121  0.48880339  0.35730126    -0.91000
O1593       O  0.63086176  0.05097285  0.33196116    -0.89800
C1594       C  0.58924130  0.48917704  0.23870266     1.19300
H1595       H  0.68657848  0.43560603  0.33513042     0.35200
H1596       H  0.69216956  0.05789459  0.28488269     0.46100
H1597       H  0.66597271  0.45728376  0.19508629     0.39600
H1598       H  0.79872935  0.45456731  0.24787409     0.36100
H1599       H  0.68127161  0.05457819  0.38018971     0.27800
H1600       H  0.81862568  0.04857455  0.23609085     0.33800
H1601       H  0.79086864  0.45788799  0.14931023     0.39700
H1602       H  0.63320880  0.49821920  0.38051125     0.34200
H1603       H  0.60850861  0.40472493  0.29603177     0.33000
H1604       H  0.62765353  0.38650393  0.23327473     0.34700
H1605       H  0.70063046  0.40962388  0.16401886     0.33700
H1606       H  0.62544004  0.05828510  0.30817709     0.37700
H1607       H  0.61657305  0.08005639  0.22277710     0.30400
H1608       H  0.81017687  0.39435313  0.34388374     0.34600
H1609       H  0.79468675  0.39819047  0.17358891     0.37500
H1610       H  0.63826084  0.40428513  0.32386469     0.30100
H1611       H  0.63090771  0.07350151  0.18537378     0.43000
H1612       H  0.78183339  0.04523841  0.33096511     0.33000
H1613       H  0.71999624  0.04945854  0.36489522     0.40700
H1614       H  0.71840745  0.38614070  0.19292525     0.32500
H1615       H  0.81656966  0.01532904  0.21636424     0.32600
H1616       H  0.81629191  0.38268918  0.30580391     0.32800
C1617       C  0.65694383  0.20493269  0.23791874    -0.11500
C1618       C  0.62468423  0.21093000  0.23829009    -0.13000
C1619       C  0.70891061  0.20482544  0.20331647    -0.11500
C1620       C  0.71588283  0.20854041  0.17363951    -0.13000
C1621       C  0.70313220  0.15862572  0.23812666    -0.11500
C1622       C  0.70704207  0.12853033  0.23670904    -0.13000
C1623       C  0.69314379  0.07957063  0.03792019    -0.11500
C1624       C  0.68746285  0.05122308  0.03880318    -0.13000
C1625       C  0.68563789  0.00615230  0.07630425    -0.11500
C1626       C  0.68840266  0.00116289  0.10669487    -0.13000
C1627       C  0.61556149  0.01130473  0.02079223    -0.11500
C1628       C  0.64601203  0.01383875  0.02812260    -0.13000
C1629       C  0.98824900  0.20510448  0.10659962    -0.11500
C1630       C  0.99034525  0.20064722  0.07610780    -0.13000
C1631       C  0.55956643  0.19523459  0.02055521    -0.11500
C1632       C  0.52909698  0.19266290  0.02778050    -0.12600
C1633       C  0.98734954  0.15577036  0.03897415    -0.11500
C1634       C  0.98129089  0.12754531  0.03866675    -0.13000
C1635       C  0.97179566  0.04748470  0.23754993    -0.11500
C1636       C  0.96786218  0.07757616  0.23589240    -0.13000
C1637       C  0.55081172  0.49559293  0.23694747    -0.11500
C1638       C  0.51832769  0.00146794  0.23782237    -0.13000
C1639       C  0.96698263  0.00077804  0.20318991    -0.11500
C1640       C  0.96023143  0.99697936  0.17348318    -0.13000
C1641       C  0.71144523  0.46287535  0.01229540    -0.14600
C1642       C  0.71005266  0.49593167  0.01708137    -0.29800
H1643       H  0.69174414  0.45028401  0.02519110     0.14400
H1644       H  0.72986975  0.00816124  0.00467802     0.15000
C1645       C  0.73585726  0.40702314  0.49279842    -0.11500
C1646       C  0.73136864  0.37832702  0.49379686    -0.13000
C1647       C  0.80596876  0.44906775  0.01208157    -0.11500
C1648       C  0.77583462  0.44563340  0.50384993    -0.13000
C1649       C  0.73635356  0.45549294  0.42417748    -0.11500
C1650       C  0.73791767  0.45142842  0.45471684    -0.13000
C1651       C  0.96387221  0.24417819  0.01255782    -0.14600
C1652       C  0.96479764  0.21122843  0.01782974    -0.29800
H1653       H  0.98389732  0.25667238  0.02505881     0.14400
H1654       H  0.94470463  0.19885916  0.00525721     0.15000
C1655       C  0.93827521  0.25056910  0.42451766    -0.11500
C1656       C  0.93689152  0.25476073  0.45504136    -0.13000
C1657       C  0.86946350  0.25797398  0.01209266    -0.11500
C1658       C  0.89937424  0.26066462  0.50434079    -0.13000
C1659       C  0.93899522  0.29949947  0.49257316    -0.11500
C1660       C  0.94368207  0.32813038  0.49313563    -0.13000
C1661       C  0.71171506  0.24458875  0.26976886    -0.14600
C1662       C  0.71393448  0.21113662  0.26617716    -0.29800
H1663       H  0.69671692  0.26041232  0.25066519     0.14400
H1664       H  0.72915541  0.19501832  0.28488252     0.15000
C1665       C  0.80109837  0.24185755  0.30018531    -0.11500
C1666       C  0.76889457  0.24940911  0.29921671    -0.13000
C1667       C  0.70727547  0.25501413  0.36198062    -0.11500
C1668       C  0.71505524  0.25596645  0.33213152    -0.13000
C1669       C  0.72505450  0.29763629  0.29305581    -0.11500
C1670       C  0.72121030  0.32767683  0.29118905    -0.13000
C1671       C  0.96298560  0.46156318  0.26943936    -0.14600
C1672       C  0.96126668  0.49501461  0.26600396    -0.29800
H1673       H  0.97752278  0.44568016  0.25012483     0.14400
H1674       H  0.94639607  0.51112438  0.28492730     0.15000
C1675       C  0.94957620  0.40856821  0.29330663    -0.11500
C1676       C  0.95281891  0.37853288  0.29151263    -0.13000
C1677       C  0.96858840  0.45132171  0.36179543    -0.11500
C1678       C  0.96063296  0.45030113  0.33198481    -0.13000
C1679       C  0.90626708  0.45677648  0.29988092    -0.11500
C1680       C  0.87403148  0.46370962  0.30085826    -0.13000
C1681       C  0.94533562  0.44506256  0.79861114    -0.00700
C1682       C  0.73031995  0.26047569  0.79839082    -0.00700
C1683       C  0.93511849  0.26459036  0.99098183    -0.00700
C1684       C  0.74032567  0.44241354  0.99096307    -0.00700
C1685       C  0.97968088  0.01097303  0.73688826    -0.00700
C1686       C  0.49281798  0.19067691  0.54036747    -0.00700
C1687       C  0.68230101  0.01612273  0.53996934    -0.00700
C1688       C  0.69607544  0.19497369  0.73637712    -0.00700
Zr1689     Zr  0.92481581  0.44543707  0.97480795     2.17500
O1690       O  0.87856714  0.43857551  0.93291316    -0.49500
O1691       O  0.93224299  0.38476304  0.97819909    -0.72700
O1692       O  0.94554055  0.44445048  0.91553627    -0.79500
O1693       O  0.85297533  0.46234133  0.54479187    -0.81300
O1694       O  0.99864567  0.46421199  0.91145995    -0.76900
O1695       O  0.86236754  0.44742390  0.98949883    -0.88500
O1696       O  0.97354991  0.36639271  0.51938461    -0.74500
O1697       O  0.98755900  0.42967106  0.98268728    -0.84000
O1698       O  0.93238497  0.42966892  0.53352192    -0.83700
O1699       O  0.94997656  0.49458611  0.96012698    -0.70400
O1700       O  0.89948740  0.49273752  0.50771088    -0.82600
Zr1701     Zr  0.99739468  0.51106382  0.55978157     2.26400
Zr1702     Zr  0.51312801  0.47798549  0.96935369     2.06300
Zr1703     Zr  0.90872317  0.47765298  0.56635990     2.10000
Zr1704     Zr  0.99511254  0.41485921  0.54154030     1.78800
O1705       O  0.86271215  0.02431901  0.58424405    -0.91400
O1706       O  0.54738072  0.37979320  0.51850774    -0.39200
O1707       O  0.97174473  0.46250367  0.57470079    -0.75800
O1708       O  0.52262174  0.46295019  0.52769043    -0.94500
O1709       O  0.98906344  0.02733676  0.50176610    -0.87800
O1710       O  0.93488874  0.02760929  0.55306992    -0.90600
C1711       C  0.95038736  0.36205309  0.99653465     1.03100
C1712       C  0.84260490  0.45290966  0.51568377     1.16100
C1713       C  0.97176862  0.45289153  0.89843355     1.06800
O1714       O  0.56191071  0.43587261  0.95023699    -0.92800
O1715       O  0.56837848  0.49596680  0.98878478    -0.88500
O1716       O  0.55965510  0.01198806  0.54411535    -0.81700
C1717       C  0.57895523  0.50688406  0.51747496     1.13500
O1718       O  0.87376385  0.04831037  0.95649355    -0.94800
Zr1719     Zr  0.92606294  0.04185301  0.49425472     1.88900
O1720       O  0.99016316  0.07214549  0.55551118    -0.71400
O1721       O  0.52812116  0.02226629  0.93116905    -0.50700
O1722       O  0.93950276  0.07012615  0.94255123    -0.95400
O1723       O  0.87565860  0.07906154  0.51874643    -0.52600
O1724       O  0.95134523  0.08961925  0.51265226    -0.71900
C1725       C  0.97377167  0.09452386  0.53571926     1.00400
O1726       O  0.53405130  0.52462325  0.60731850    -0.60700
O1727       O  0.89017741  0.43660644  0.60539177    -0.55500
O1728       O  0.98169390  0.00644928  0.61969255    -0.92200
O1729       O  0.92776924  0.48795818  0.62421298    -0.90700
O1730       O  0.97738240  0.38510341  0.59117201    -0.91000
O1731       O  0.54419859  0.40551672  0.58172005    -0.89800
C1732       C  0.95559667  0.99830118  0.63714028     1.19300
H1733       H  0.91961373  0.41151543  0.53923473     0.35200
H1734       H  0.54770081  0.45612485  0.53248383     0.46100
H1735       H  0.92620398  0.04588202  0.56812178     0.39600
H1736       H  0.94382936  0.00168952  0.93746183     0.36100
H1737       H  0.54746879  0.35807799  0.53007493     0.27800
H1738       H  0.54488832  0.01026055  0.91434616     0.33800
H1739       H  0.92770617  0.09345700  0.94543907     0.39700
H1740       H  0.98890796  0.36173465  0.58791031     0.34200
H1741       H  0.86805093  0.44812613  0.61624363     0.33000
H1742       H  0.85753732  0.01921621  0.60826958     0.34700
H1743       H  0.87461099  0.10008769  0.50570265     0.33700
H1744       H  0.54081677  0.42540399  0.59668825     0.37700
H1745       H  0.55400924  0.50581282  0.60892215     0.30400
H1746       H  0.88719129  0.41749589  0.92076507     0.34600
H1747       H  0.86872110  0.07233719  0.95082174     0.37500
H1748       H  0.88200566  0.41932033  0.59078603     0.30100
H1749       H  0.54532183  0.54401656  0.60011717     0.43000
H1750       H  0.57381148  0.42685386  0.97148545     0.33000
H1751       H  0.54232233  0.37600752  0.99531245     0.40700
H1752       H  0.88340223  0.08482352  0.54181893     0.32500
H1753       H  0.00697575  0.03039594  0.91888100     0.32600
H1754       H  0.87884113  0.45642387  0.91571314     0.32800
Zr1755     Zr  0.91912504  0.27071689  0.80489311     2.17500
O1756       O  0.87600779  0.31827422  0.82351893    -0.49500
O1757       O  0.92526786  0.26476779  0.86718253    -0.72700
O1758       O  0.85699987  0.25917289  0.80633275    -0.79500
O1759       O  0.98738513  0.32830298  0.77694527    -0.81300
O1760       O  0.85393738  0.20753435  0.78490242    -0.76900
O1761       O  0.93206713  0.32806009  0.80002938    -0.88500
O1762       O  0.96781970  0.22076133  0.87998782    -0.74500
O1763       O  0.93065824  0.21246406  0.81646255    -0.84000
O1764       O  0.98184984  0.25811308  0.81618038    -0.83700
O1765       O  0.90164414  0.24450145  0.75357483    -0.70400
O1766       O  0.94921044  0.28476631  0.75406776    -0.82600
Zr1767     Zr  0.50590961  0.18494853  0.72664722     2.26400
Zr1768     Zr  0.91385831  0.18587114  0.76559630     2.06300
Zr1769     Zr  0.51183862  0.27086803  0.76516410     2.10000
Zr1770     Zr  0.99346647  0.19975980  0.82688735     1.78800
O1771       O  0.53221156  0.30580545  0.72098016    -0.91400
O1772       O  0.98043409  0.15213260  0.86000975    -0.39200
O1773       O  0.52368561  0.21255845  0.77664545    -0.75800
O1774       O  0.97651162  0.17137463  0.77786774    -0.94500
O1775       O  0.94374452  0.19875191  0.71435507    -0.87800
O1776       O  0.99572148  0.24330866  0.71454504    -0.90600
C1777       C  0.94385250  0.24495961  0.88833926     1.03100
C1778       C  0.95783440  0.34292271  0.78951145     1.16100
C1779       C  0.83974200  0.23537986  0.79786936     1.06800
O1780       O  0.89446479  0.14922636  0.80863657    -0.92800
O1781       O  0.93471398  0.12872491  0.74923689    -0.88500
O1782       O  0.99087977  0.12779224  0.72770266    -0.81700
C1783       C  0.96422446  0.11351884  0.73718120     1.13500
O1784       O  0.88415148  0.30335166  0.69699604    -0.94800
Zr1785     Zr  0.93320078  0.25732558  0.70376416     1.88900
O1786       O  0.50025654  0.19152232  0.66430422    -0.71400
O1787       O  0.87375159  0.17176732  0.72099233    -0.50700
O1788       O  0.88282342  0.23978886  0.67343628    -0.95400
O1789       O  0.95197806  0.30451448  0.67378223    -0.52600
O1790       O  0.95754131  0.23506929  0.65058734    -0.71900
C1791       C  0.98182759  0.21101470  0.64251395     1.00400
O1792       O  0.55451981  0.14351081  0.70543855    -0.60700
O1793       O  0.55360867  0.28711048  0.80719891    -0.55500
O1794       O  0.56871692  0.19293096  0.73204878    -0.92200
O1795       O  0.57211337  0.24555530  0.75057729    -0.90700
O1796       O  0.54379208  0.21905760  0.85686781    -0.91000
O1797       O  0.54374593  0.15493288  0.83213690    -0.89800
C1798       C  0.58623495  0.21663106  0.74016177     1.19300
H1799       H  0.98856172  0.27081616  0.83533351     0.35200
H1800       H  0.98274301  0.14839531  0.78460680     0.46100
H1801       H  0.50974058  0.24867951  0.69561054     0.39600
H1802       H  0.87685199  0.25155499  0.74778004     0.36100
H1803       H  0.99449691  0.15265602  0.88128534     0.27800
H1804       H  0.85975010  0.15590462  0.73194075     0.33800
H1805       H  0.88736172  0.24348895  0.64895784     0.39700
H1806       H  0.54413484  0.20865228  0.87974491     0.34200
H1807       H  0.56930408  0.30001365  0.79414870     0.33000
H1808       H  0.55038420  0.31722930  0.73234775     0.34700
H1809       H  0.97607991  0.29616693  0.66462016     0.33700
H1810       H  0.55002629  0.14858985  0.80825194     0.37700
H1811       H  0.55880775  0.12614302  0.72334490     0.30400
H1812       H  0.86307704  0.31029708  0.84311265     0.34600
H1813       H  0.88154579  0.30700254  0.67208236     0.37500
H1814       H  0.53917712  0.30384734  0.82190696     0.30100
H1815       H  0.54439095  0.13253751  0.68593448     0.43000
H1816       H  0.91693619  0.13652471  0.81768607     0.33000
H1817       H  0.95520600  0.15816288  0.86732568     0.40700
H1818       H  0.95634335  0.32027623  0.69204656     0.32500
H1819       H  0.85629317  0.19227606  0.71755455     0.32600
H1820       H  0.85799782  0.32234270  0.80503187     0.32800
Zr1821     Zr  0.75055864  0.26161982  0.97496821     2.17500
O1822       O  0.79665786  0.26760145  0.93263009    -0.49500
O1823       O  0.74354764  0.32227422  0.97881419    -0.72700
O1824       O  0.72987383  0.26259938  0.91565356    -0.79500
O1825       O  0.82222755  0.24367907  0.54505060    -0.81300
O1826       O  0.67840789  0.24008972  0.91117235    -0.76900
O1827       O  0.81294007  0.26009591  0.98966806    -0.88500
O1828       O  0.70107026  0.33992249  0.51940105    -0.74500
O1829       O  0.68759351  0.27678456  0.98190459    -0.84000
O1830       O  0.74273465  0.27652837  0.53374019    -0.83700
O1831       O  0.72620398  0.21195557  0.96089127    -0.70400
O1832       O  0.77578464  0.21330757  0.50774492    -0.82600
Zr1833     Zr  0.67763736  0.19516815  0.55987076     2.26400
Zr1834     Zr  0.66267447  0.22702937  0.96916035     2.06300
Zr1835     Zr  0.76645081  0.22832413  0.56632595     2.10000
Zr1836     Zr  0.67986328  0.29120202  0.54148283     1.78800
O1837       O  0.81122999  0.18261957  0.58571188    -0.91400
O1838       O  0.62623333  0.32570210  0.51966398    -0.39200
O1839       O  0.70343217  0.24359462  0.57445103    -0.75800
O1840       O  0.65240546  0.24370518  0.52781238    -0.94500
O1841       O  0.68655932  0.17943962  0.50175664    -0.87800
O1842       O  0.74066674  0.17937395  0.55306714    -0.90600
C1843       C  0.72455167  0.34506928  0.99639076     1.03100
C1844       C  0.83281296  0.25272291  0.51589334     1.16100
C1845       C  0.70456113  0.25268499  0.89836279     1.06800
O1846       O  0.61476327  0.26904866  0.94813666    -0.92800
O1847       O  0.60697701  0.20964928  0.98838338    -0.88500
O1848       O  0.61575893  0.19394925  0.54380943    -0.81700
C1849       C  0.59625495  0.19965351  0.51711886     1.13500
O1850       O  0.80403913  0.15560060  0.95998539    -0.94800
Zr1851     Zr  0.74948724  0.16491135  0.49432747     1.88900
O1852       O  0.68507828  0.13473865  0.55603410    -0.71400
O1853       O  0.64700619  0.18282834  0.93260110    -0.50700
O1854       O  0.73826807  0.13828690  0.94170271    -0.95400
O1855       O  0.79652545  0.12324768  0.51790059    -0.52600
O1856       O  0.72183979  0.11791821  0.51149180    -0.71900
C1857       C  0.70033289  0.11267720  0.53529123     1.00400
O1858       O  0.64049075  0.18307930  0.60794259    -0.60700
O1859       O  0.78607873  0.26810123  0.60614670    -0.55500
O1860       O  0.69358004  0.20096213  0.61954255    -0.92200
O1861       O  0.74749763  0.21913498  0.62433983    -0.90700
O1862       O  0.69680491  0.31946821  0.59243574    -0.91000
O1863       O  0.63194769  0.30116669  0.58350471    -0.89800
C1864       C  0.71940541  0.20962854  0.63699771     1.19300
H1865       H  0.75544333  0.29467928  0.53960350     0.35200
H1866       H  0.62728953  0.25047910  0.53247213     0.46100
H1867       H  0.74950335  0.16110345  0.56807909     0.39600
H1868       H  0.73198215  0.20495977  0.93778678     0.36100
H1869       H  0.62522344  0.34724305  0.53177930     0.27800
H1870       H  0.62994558  0.19434898  0.91572671     0.33800
H1871       H  0.74355616  0.11407787  0.94644475     0.39700
H1872       H  0.68940684  0.34351046  0.58782604     0.34200
H1873       H  0.81104787  0.25866480  0.61201703     0.33000
H1874       H  0.82727176  0.17725957  0.56586011     0.34700
H1875       H  0.79648601  0.10329502  0.50334048     0.33700
H1876       H  0.63235160  0.27943542  0.59511988     0.37700
H1877       H  0.61900617  0.20040053  0.60762884     0.30400
H1878       H  0.78757985  0.28776158  0.91916506     0.34600
H1879       H  0.80798766  0.13141903  0.95487777     0.37500
H1880       H  0.78822690  0.28821302  0.59246952     0.30100
H1881       H  0.63162704  0.16203638  0.60203004     0.43000
H1882       H  0.60544160  0.25885845  0.92769450     0.33000
H1883       H  0.63122393  0.32784719  0.99299142     0.40700
H1884       H  0.78739919  0.11670668  0.54017661     0.32500
H1885       H  0.66897213  0.17506573  0.91932121     0.32600
H1886       H  0.79710307  0.24865133  0.91661846     0.32800
Zr1887     Zr  0.75632658  0.43468724  0.80506814     2.17500
O1888       O  0.79847768  0.38687305  0.82476813    -0.49500
O1889       O  0.74937115  0.44071152  0.86727899    -0.72700
O1890       O  0.81859511  0.44577836  0.80653805    -0.79500
O1891       O  0.68771837  0.37737714  0.77841847    -0.81300
O1892       O  0.82155565  0.49774212  0.78587036    -0.76900
O1893       O  0.74401084  0.37729601  0.79923705    -0.88500
O1894       O  0.70850658  0.48611185  0.87978166    -0.74500
O1895       O  0.74461640  0.49288365  0.81677759    -0.84000
O1896       O  0.69353968  0.44730835  0.81600837    -0.83700
O1897       O  0.77400225  0.46126164  0.75402724    -0.70400
O1898       O  0.72662897  0.42065631  0.75406123    -0.82600
Zr1899     Zr  0.66962841  0.02142616  0.72601295     2.26400
Zr1900     Zr  0.76180563  0.02005145  0.76582227     2.06300
Zr1901     Zr  0.66395246  0.43462615  0.76458311     2.10000
Zr1902     Zr  0.68175508  0.50565068  0.82670452     1.78800
O1903       O  0.64481437  0.40029028  0.71921820    -0.91400
O1904       O  0.69488325  0.05375732  0.85991725    -0.39200
O1905       O  0.65196041  0.49307645  0.77584775    -0.75800
O1906       O  0.69905938  0.03481654  0.77786890    -0.94500
O1907       O  0.73203977  0.00724782  0.71441981    -0.87800
O1908       O  0.68032538  0.46232003  0.71427842    -0.90600
C1909       C  0.73163506  0.46130672  0.88827881     1.03100
C1910       C  0.71771782  0.36260148  0.78985761     1.16100
C1911       C  0.83580731  0.46973299  0.79849198     1.06800
O1912       O  0.78110699  0.05733417  0.80829335    -0.92800
O1913       O  0.74131924  0.07718096  0.74909777    -0.88500
O1914       O  0.68537870  0.07827971  0.72705111    -0.81700
C1915       C  0.71206925  0.09243847  0.73657014     1.13500
O1916       O  0.79312703  0.40325150  0.69789702    -0.94800
Zr1917     Zr  0.74290711  0.44831537  0.70396172     1.88900
O1918       O  0.67527475  0.01450219  0.66370360    -0.71400
O1919       O  0.80259800  0.03594516  0.72275115    -0.50700
O1920       O  0.79309794  0.46485222  0.67256651    -0.95400
O1921       O  0.72514987  0.40002209  0.67525957    -0.52600
O1922       O  0.71816907  0.47023641  0.65060691    -0.71900
C1923       C  0.69421139  0.99527605  0.64228201     1.00400
O1924       O  0.62175028  0.06347805  0.70450800    -0.60700
O1925       O  0.62277229  0.41591424  0.80577085    -0.55500
O1926       O  0.60660647  0.01352857  0.73210578    -0.92200
O1927       O  0.60368361  0.46022717  0.75043384    -0.90700
O1928       O  0.63365551  0.48517218  0.85782534    -0.91000
O1929       O  0.63098766  0.05037895  0.83182342    -0.89800
C1930       C  0.58957418  0.48897627  0.73950448     1.19300
H1931       H  0.68665078  0.43456172  0.83505677     0.35200
H1932       H  0.69289090  0.05784750  0.78447307     0.46100
H1933       H  0.66622663  0.45693603  0.69507789     0.39600
H1934       H  0.79880648  0.45427514  0.74825944     0.36100
H1935       H  0.68303871  0.05179239  0.88221316     0.27800
H1936       H  0.82118170  0.04534976  0.73580988     0.33800
H1937       H  0.79103552  0.45613031  0.64916867     0.39700
H1938       H  0.63502497  0.49407489  0.88123325     0.34200
H1939       H  0.61005547  0.40026864  0.79288227     0.33000
H1940       H  0.63118388  0.38461097  0.73095975     0.34700
H1941       H  0.70096981  0.40781893  0.66598447     0.33700
H1942       H  0.61949019  0.05150807  0.80906048     0.37700
H1943       H  0.61698012  0.08037826  0.72282570     0.30400
H1944       H  0.81126760  0.39495390  0.84439727     0.34600
H1945       H  0.79443172  0.39759622  0.67330516     0.37500
H1946       H  0.63796467  0.40160792  0.82218989     0.30100
H1947       H  0.63242054  0.07493739  0.68566288     0.43000
H1948       H  0.75863761  0.06849855  0.81880291     0.33000
H1949       H  0.72079967  0.04877259  0.86504623     0.40700
H1950       H  0.72111178  0.38455054  0.69390955     0.32500
H1951       H  0.81510165  0.01457600  0.71362828     0.32600
H1952       H  0.81673918  0.38235829  0.80655299     0.32800
C1953       C  0.65692422  0.20423377  0.73788335    -0.11500
C1954       C  0.62462939  0.21007357  0.73849743    -0.13000
C1955       C  0.70870585  0.20495267  0.70302572    -0.11500
C1956       C  0.71586120  0.20869336  0.67341347    -0.13000
C1957       C  0.70369771  0.15832580  0.73736626    -0.11500
C1958       C  0.70797982  0.12823375  0.73587366    -0.13000
C1959       C  0.69246366  0.07955221  0.53829926    -0.11500
C1960       C  0.68706901  0.05113713  0.53888181    -0.13000
C1961       C  0.68556606  0.00589992  0.57601156    -0.11500
C1962       C  0.68829609  0.00095073  0.60637349    -0.13000
C1963       C  0.61573651  0.01078322  0.52065016    -0.11500
C1964       C  0.64616354  0.01343264  0.52781779    -0.13000
C1965       C  0.98767509  0.20548629  0.60660677    -0.11500
C1966       C  0.99007432  0.20080758  0.57619645    -0.13000
C1967       C  0.55949233  0.19546833  0.52067516    -0.11500
C1968       C  0.52905156  0.19299443  0.52808437    -0.12600
C1969       C  0.98761714  0.15581780  0.53918906    -0.11500
C1970       C  0.98170319  0.12758113  0.53876279    -0.13000
C1971       C  0.97255502  0.04761526  0.73862708    -0.11500
C1972       C  0.96855976  0.07770238  0.73703941    -0.13000
C1973       C  0.55116659  0.49545838  0.73801087    -0.11500
C1974       C  0.51817102  0.00178194  0.73843791    -0.13000
C1975       C  0.96654629  0.00198509  0.70333654    -0.11500
C1976       C  0.95916830  0.99906480  0.67361606    -0.13000
C1977       C  0.71146873  0.46276765  0.51254891    -0.14600
C1978       C  0.71017814  0.49582374  0.51734264    -0.29800
H1979       H  0.69184603  0.45023011  0.52563331     0.14400
H1980       H  0.73017994  0.00842287  0.50490807     0.15000
C1981       C  0.73590889  0.40725876  0.99222180    -0.11500
C1982       C  0.73121190  0.37860206  0.99277470    -0.13000
C1983       C  0.80591503  0.44891733  0.51162963    -0.11500
C1984       C  0.77591501  0.44576804  0.00416090    -0.13000
C1985       C  0.73696569  0.45620044  0.92426568    -0.11500
C1986       C  0.73842933  0.45199089  0.95475992    -0.13000
C1987       C  0.96376486  0.24404109  0.51275575    -0.14600
C1988       C  0.96494058  0.21106849  0.51787712    -0.29800
H1989       H  0.98361424  0.25665091  0.52539801     0.14400
H1990       H  0.94499317  0.19858236  0.50521587     0.15000
C1991       C  0.93853816  0.25031580  0.92433322    -0.11500
C1992       C  0.93709446  0.25475300  0.95481675    -0.13000
C1993       C  0.86944539  0.25688585  0.51206383    -0.11500
C1994       C  0.89948268  0.26134957  0.00413178    -0.13000
C1995       C  0.93953639  0.29976004  0.99201102    -0.11500
C1996       C  0.94399528  0.32848278  0.99256754    -0.13000
C1997       C  0.71200616  0.24404695  0.76964550    -0.14600
C1998       C  0.71409751  0.21063492  0.76585297    -0.29800
H1999       H  0.69704834  0.26004526  0.75065570     0.14400
H2000       H  0.72935703  0.19438462  0.78442898     0.15000
C2001       C  0.80134487  0.24144528  0.80034953    -0.11500
C2002       C  0.76912481  0.24857222  0.79940519    -0.13000
C2003       C  0.70746628  0.25380694  0.86187343    -0.11500
C2004       C  0.71522339  0.25485305  0.83205353    -0.13000
C2005       C  0.72563265  0.29682165  0.79346806    -0.11500
C2006       C  0.72228984  0.32684591  0.79165410    -0.13000
C2007       C  0.96324445  0.46164388  0.76963083    -0.14600
C2008       C  0.96137917  0.49507139  0.76601991    -0.29800
H2009       H  0.97787697  0.44571742  0.75040239     0.14400
H2010       H  0.94644515  0.51125455  0.78484881     0.15000
C2011       C  0.94997288  0.40871330  0.79352124    -0.11500
C2012       C  0.95322276  0.37869380  0.79146839    -0.13000
C2013       C  0.96904812  0.45163884  0.86189754    -0.11500
C2014       C  0.96093437  0.45057544  0.83214019    -0.13000
C2015       C  0.90648907  0.45684909  0.80005628    -0.11500
C2016       C  0.87423055  0.46375096  0.80105136    -0.13000
C2017       C  0.94523145  0.94492582  0.29864739    -0.00700
C2018       C  0.73048760  0.76080176  0.29840867    -0.00700
C2019       C  0.93504374  0.76449532  0.49115091    -0.00700
C2020       C  0.74057826  0.94243396  0.49141647    -0.00700
C2021       C  0.97945335  0.51100537  0.23673262    -0.00700
C2022       C  0.49291363  0.69013786  0.03973262    -0.00700
C2023       C  0.68228667  0.51619970  0.03973627    -0.00700
C2024       C  0.69610618  0.69512691  0.23646615    -0.00700
Zr2025     Zr  0.92457480  0.94564775  0.47513538     2.17500
O2026       O  0.87839716  0.93904395  0.43304515    -0.49500
O2027       O  0.93175739  0.88494080  0.47829133    -0.72700
O2028       O  0.94459926  0.94439882  0.41578852    -0.79500
O2029       O  0.85314684  0.96175654  0.04516082    -0.81300
O2030       O  0.99787493  0.96382190  0.41172726    -0.76900
O2031       O  0.86219652  0.94799602  0.49022324    -0.88500
O2032       O  0.97385463  0.86698715  0.01975529    -0.74500
O2033       O  0.98739785  0.92994936  0.48271135    -0.84000
O2034       O  0.93224580  0.93019871  0.03383856    -0.83700
O2035       O  0.94981335  0.99477727  0.46057819    -0.70400
O2036       O  0.89927326  0.99324813  0.00780182    -0.82600
Zr2037     Zr  0.99747547  0.01170135  0.05985359     2.26400
Zr2038     Zr  0.51294963  0.97854981  0.46962519     2.06300
Zr2039     Zr  0.90846137  0.97838383  0.06644231     2.10000
Zr2040     Zr  0.99514815  0.91565128  0.04163723     1.78800
O2041       O  0.86383627  0.52400852  0.08589573    -0.91400
O2042       O  0.54845814  0.88083090  0.01902654    -0.39200
O2043       O  0.97151831  0.96329631  0.07448763    -0.75800
O2044       O  0.52267437  0.96298983  0.02782659    -0.94500
O2045       O  0.98859571  0.52711459  0.00138333    -0.87800
O2046       O  0.93449870  0.52735615  0.05251467    -0.90600
C2047       C  0.95022545  0.86220835  0.49636936     1.03100
C2048       C  0.84258861  0.95272535  0.01596359     1.16100
C2049       C  0.97089808  0.95263992  0.39870701     1.06800
O2050       O  0.56243402  0.93645624  0.45184789    -0.92800
O2051       O  0.56835606  0.99642097  0.48859917    -0.88500
O2052       O  0.55952832  0.51144815  0.04430062    -0.81700
C2053       C  0.57881372  0.00703938  0.01722689     1.13500
O2054       O  0.87411279  0.54593625  0.45601099    -0.94800
Zr2055     Zr  0.92558441  0.54146176  0.99368525     1.88900
O2056       O  0.98989068  0.57207119  0.05441292    -0.71400
O2057       O  0.52841555  0.52288542  0.43190018    -0.50700
O2058       O  0.93867899  0.57141332  0.44309715    -0.95400
O2059       O  0.87497193  0.57935753  0.01671120    -0.52600
O2060       O  0.94987761  0.58966247  0.01253805    -0.71900
C2061       C  0.97277015  0.59455159  0.03518918     1.00400
O2062       O  0.53404649  0.02470034  0.10773932    -0.60700
O2063       O  0.88790871  0.94015454  0.10740659    -0.55500
O2064       O  0.98151597  0.50735473  0.11940059    -0.92200
O2065       O  0.92826139  0.98740747  0.12434335    -0.90700
O2066       O  0.97915379  0.88661863  0.09246980    -0.91000
O2067       O  0.54291444  0.90446832  0.08332475    -0.89800
C2068       C  0.95576972  0.49856006  0.13684847     1.19300
H2069       H  0.91948497  0.91203493  0.03954423     0.35200
H2070       H  0.54777366  0.95617482  0.03254318     0.46100
H2071       H  0.92559735  0.54574899  0.06735057     0.39600
H2072       H  0.94455309  0.50123034  0.43706622     0.36100
H2073       H  0.54817808  0.85862243  0.02941561     0.27800
H2074       H  0.54467334  0.51105655  0.41456805     0.33800
H2075       H  0.92551380  0.59422836  0.44626306     0.39700
H2076       H  0.95432339  0.88250124  0.08842872     0.34200
H2077       H  0.86313585  0.95027997  0.11322143     0.33000
H2078       H  0.84812874  0.51325807  0.10120061     0.34700
H2079       H  0.87269312  0.59910084  0.00156447     0.33700
H2080       H  0.54257998  0.92596745  0.09537125     0.37700
H2081       H  0.55400319  0.00589904  0.10936840     0.30400
H2082       H  0.88766432  0.91905046  0.41940787     0.34600
H2083       H  0.86801656  0.56993549  0.45051565     0.37500
H2084       H  0.88515219  0.91990824  0.09418564     0.30100
H2085       H  0.54532463  0.04405997  0.10044763     0.43000
H2086       H  0.55129169  0.92030903  0.43809413     0.33000
H2087       H  0.54429492  0.87892235  0.49515076     0.40700
H2088       H  0.88342848  0.58743595  0.03863705     0.32500
H2089       H  0.00584755  0.53117120  0.42060029     0.32600
H2090       H  0.87739634  0.95813024  0.41712594     0.32800
Zr2091     Zr  0.91934511  0.77079295  0.30495757     2.17500
O2092       O  0.87693519  0.81888741  0.32353926    -0.49500
O2093       O  0.92523297  0.76449094  0.36728155    -0.72700
O2094       O  0.85709482  0.75972143  0.30597103    -0.79500
O2095       O  0.98810299  0.82813501  0.27751614    -0.81300
O2096       O  0.85423388  0.70775888  0.28528291    -0.76900
O2097       O  0.93269675  0.82797504  0.30042151    -0.88500
O2098       O  0.96752337  0.72026379  0.38009921    -0.74500
O2099       O  0.93089142  0.71259726  0.31674405    -0.84000
O2100       O  0.98210420  0.75825934  0.31593074    -0.83700
O2101       O  0.90188650  0.74443449  0.25366088    -0.70400
O2102       O  0.94925930  0.78489911  0.25407190    -0.82600
Zr2103     Zr  0.50597325  0.68464127  0.22577658     2.26400
Zr2104     Zr  0.91409877  0.68582434  0.26590259     2.06300
Zr2105     Zr  0.51146367  0.77086324  0.26447021     2.10000
Zr2106     Zr  0.99376254  0.69998347  0.32687074     1.78800
O2107       O  0.53322895  0.80562713  0.22086936    -0.91400
O2108       O  0.98114639  0.65057986  0.35720424    -0.39200
O2109       O  0.52355106  0.71241625  0.27573256    -0.75800
O2110       O  0.97682626  0.67130614  0.27795213    -0.94500
O2111       O  0.94366850  0.69878489  0.21452120    -0.87800
O2112       O  0.99586513  0.74312412  0.21415562    -0.90600
C2113       C  0.94364519  0.74456306  0.38846315     1.03100
C2114       C  0.95856044  0.84277185  0.29005950     1.16100
C2115       C  0.83992857  0.73577950  0.29780914     1.06800
O2116       O  0.89520123  0.64752998  0.30759738    -0.92800
O2117       O  0.93455299  0.62878424  0.24902341    -0.88500
O2118       O  0.99068607  0.62772198  0.22747433    -0.81700
C2119       C  0.96398784  0.61352624  0.23689815     1.13500
O2120       O  0.88448217  0.80356524  0.19669986    -0.94800
Zr2121     Zr  0.93333854  0.75740388  0.20381782     1.88900
O2122       O  0.50048849  0.69096432  0.16348963    -0.71400
O2123       O  0.87365739  0.67139371  0.22180940    -0.50700
O2124       O  0.88314501  0.74092182  0.17235238    -0.95400
O2125       O  0.95236765  0.80536510  0.17547442    -0.52600
O2126       O  0.95808666  0.73518699  0.15075474    -0.71900
C2127       C  0.98200887  0.71086058  0.14258044     1.00400
O2128       O  0.55444110  0.64200536  0.20648332    -0.60700
O2129       O  0.55007094  0.78891963  0.30845810    -0.55500
O2130       O  0.56871276  0.69364240  0.23061823    -0.92200
O2131       O  0.57197204  0.74597910  0.25022712    -0.90700
O2132       O  0.54278923  0.71992486  0.35621815    -0.91000
O2133       O  0.54525105  0.65583782  0.33176404    -0.89800
C2134       C  0.58617740  0.71727397  0.23926462     1.19300
H2135       H  0.98886776  0.77102487  0.33501273     0.35200
H2136       H  0.98305438  0.64829047  0.28458251     0.46100
H2137       H  0.50978357  0.74851846  0.19485314     0.39600
H2138       H  0.87711535  0.75143616  0.24776638     0.36100
H2139       H  0.99436202  0.65062630  0.37902079     0.27800
H2140       H  0.85702686  0.65875042  0.23393741     0.33800
H2141       H  0.88735982  0.74630542  0.14818921     0.39700
H2142       H  0.54168134  0.71153096  0.37985500     0.34200
H2143       H  0.56810274  0.79945845  0.29581152     0.33000
H2144       H  0.55277822  0.81531292  0.23208603     0.34700
H2145       H  0.97358343  0.79622385  0.16175110     0.33700
H2146       H  0.56019529  0.65864862  0.31152114     0.37700
H2147       H  0.55823777  0.62527474  0.22504463     0.30400
H2148       H  0.86451650  0.81127740  0.34365219     0.34600
H2149       H  0.88184746  0.80706834  0.17176651     0.37500
H2150       H  0.53535657  0.80764947  0.32044411     0.30100
H2151       H  0.54455036  0.63046715  0.18723471     0.43000
H2152       H  0.89932852  0.65744106  0.33004910     0.33000
H2153       H  0.95563248  0.65579662  0.36381482     0.40700
H2154       H  0.96207074  0.81801288  0.19397468     0.32500
H2155       H  0.85881232  0.69278489  0.21562913     0.32600
H2156       H  0.85842423  0.82269077  0.30548157     0.32800
Zr2157     Zr  0.75020929  0.76186022  0.47510602     2.17500
O2158       O  0.79579677  0.76898735  0.43255431    -0.49500
O2159       O  0.74239046  0.82253737  0.47842959    -0.72700
O2160       O  0.72995017  0.76232153  0.41570336    -0.79500
O2161       O  0.82209728  0.74440185  0.04539385    -0.81300
O2162       O  0.67744874  0.74155096  0.41143335    -0.76900
O2163       O  0.81268521  0.76015566  0.48983804    -0.88500
O2164       O  0.70175703  0.83992169  0.01985144    -0.74500
O2165       O  0.68736284  0.77747581  0.48279722    -0.84000
O2166       O  0.74268716  0.77690088  0.03395908    -0.83700
O2167       O  0.72531292  0.71251699  0.46083813    -0.70400
O2168       O  0.77588450  0.71390403  0.00807031    -0.82600
Zr2169     Zr  0.67738241  0.69544782  0.06008516     2.26400
Zr2170     Zr  0.66199339  0.72811119  0.46958379     2.06300
Zr2171     Zr  0.76629963  0.72882800  0.06669566     2.10000
Zr2172     Zr  0.67989042  0.79156068  0.04176668     1.78800
O2173       O  0.81120773  0.68343725  0.08650958    -0.91400
O2174       O  0.62723276  0.82716237  0.01956403    -0.39200
O2175       O  0.70319911  0.74394564  0.07488864    -0.75800
O2176       O  0.65225323  0.74409023  0.02803967    -0.94500
O2177       O  0.68676406  0.67965938  0.00209970    -0.87800
O2178       O  0.74043231  0.67983074  0.05370961    -0.90600
C2179       C  0.72509315  0.84508547  0.49753128     1.03100
C2180       C  0.83234729  0.75455332  0.01652113     1.16100
C2181       C  0.70416394  0.75322688  0.39846983     1.06800
O2182       O  0.61383482  0.77125509  0.45128866    -0.92800
O2183       O  0.60672608  0.70985737  0.48861388    -0.88500
O2184       O  0.61519936  0.69548029  0.04441369    -0.81700
C2185       C  0.59624434  0.69993122  0.01725047     1.13500
O2186       O  0.80137044  0.65828563  0.45699887    -0.94800
Zr2187     Zr  0.74982282  0.66533133  0.99512099     1.88900
O2188       O  0.68413010  0.63508059  0.05459802    -0.71400
O2189       O  0.64459591  0.68531099  0.43225270    -0.50700
O2190       O  0.73457444  0.63902926  0.44171311    -0.95400
O2191       O  0.80069994  0.62925291  0.02017242    -0.52600
O2192       O  0.72526134  0.61718850  0.01382420    -0.71900
C2193       C  0.70155988  0.61248315  0.03572625     1.00400
O2194       O  0.64127612  0.68020982  0.10762874    -0.60700
O2195       O  0.78579904  0.76831828  0.10690569    -0.55500
O2196       O  0.69321194  0.70110623  0.11977714    -0.92200
O2197       O  0.74695463  0.71964674  0.12451480    -0.90700
O2198       O  0.69761358  0.82126822  0.09145855    -0.91000
O2199       O  0.63191029  0.80172668  0.08372119    -0.89800
C2200       C  0.71902522  0.70987216  0.13717095     1.19300
H2201       H  0.75542811  0.79505460  0.03975902     0.35200
H2202       H  0.62712231  0.75102826  0.03250913     0.46100
H2203       H  0.74915973  0.66164132  0.06885837     0.39600
H2204       H  0.73084143  0.70550185  0.43769873     0.36100
H2205       H  0.62718785  0.84886275  0.03115121     0.27800
H2206       H  0.62903556  0.69769019  0.41473147     0.33800
H2207       H  0.74310740  0.61496947  0.44512516     0.39700
H2208       H  0.68677650  0.84478906  0.08784072     0.34200
H2209       H  0.80905264  0.75704046  0.11576675     0.33000
H2210       H  0.82039732  0.69173855  0.10802315     0.34700
H2211       H  0.79206200  0.62130226  0.04207395     0.33700
H2212       H  0.63725031  0.78320968  0.10027889     0.37700
H2213       H  0.62085925  0.69851765  0.10973892     0.30400
H2214       H  0.78602215  0.78869074  0.41870798     0.34600
H2215       H  0.80543650  0.63441713  0.45055938     0.37500
H2216       H  0.79197619  0.78689434  0.09282862     0.30100
H2217       H  0.63056569  0.66071796  0.09973918     0.43000
H2218       H  0.59854385  0.77614102  0.47173365     0.33000
H2219       H  0.63139969  0.82852085  0.49476755     0.40700
H2220       H  0.81765260  0.64452458  0.02677050     0.32500
H2221       H  0.66676242  0.67616896  0.41989586     0.32600
H2222       H  0.79717403  0.74967440  0.41688484     0.32800
Zr2223     Zr  0.75589212  0.93539185  0.30539457     2.17500
O2224       O  0.79778415  0.88730868  0.32485556    -0.49500
O2225       O  0.74949808  0.94149063  0.36762403    -0.72700
O2226       O  0.81824207  0.94627812  0.30688084    -0.79500
O2227       O  0.68789890  0.87776422  0.27721583    -0.81300
O2228       O  0.82145927  0.99804186  0.28581702    -0.76900
O2229       O  0.74338675  0.87796800  0.29989962    -0.88500
O2230       O  0.70750479  0.98596567  0.38032433    -0.74500
O2231       O  0.74432041  0.99358685  0.31733922    -0.84000
O2232       O  0.69304734  0.94789710  0.31617164    -0.83700
O2233       O  0.77374347  0.96198531  0.25437692    -0.70400
O2234       O  0.72618934  0.92152484  0.25433255    -0.82600
Zr2235     Zr  0.66976720  0.52116708  0.22563154     2.26400
Zr2236     Zr  0.76173767  0.52023646  0.26605991     2.06300
Zr2237     Zr  0.66347416  0.93523761  0.26463937     2.10000
Zr2238     Zr  0.68140866  0.00622681  0.32710397     1.78800
O2239       O  0.64270380  0.90046126  0.22047656    -0.91400
O2240       O  0.69775359  0.55406394  0.35823467    -0.39200
O2241       O  0.65158365  0.99361272  0.27620549    -0.75800
O2242       O  0.69887679  0.53499102  0.27758128    -0.94500
O2243       O  0.73233242  0.50722319  0.21449054    -0.87800
O2244       O  0.68000780  0.96296874  0.21445042    -0.90600
C2245       C  0.73127493  0.96160800  0.38873006     1.03100
C2246       C  0.71757926  0.86309557  0.28952590     1.16100
C2247       C  0.83561767  0.97003865  0.29856015     1.06800
O2248       O  0.78153566  0.55500016  0.31069684    -0.92800
O2249       O  0.74095832  0.57729016  0.24896136    -0.88500
O2250       O  0.68502031  0.57821624  0.22691651    -0.81700
C2251       C  0.71165146  0.59247919  0.23643242     1.13500
O2252       O  0.79137945  0.90246455  0.19960544    -0.94800
Zr2253     Zr  0.74265583  0.94909228  0.20432419     1.88900
O2254       O  0.67554010  0.51408227  0.16337091    -0.71400
O2255       O  0.80324714  0.53720046  0.22433558    -0.50700
O2256       O  0.79365394  0.96512148  0.17375235    -0.95400
O2257       O  0.72402075  0.90139557  0.17526146    -0.52600
O2258       O  0.71879055  0.97162363  0.15086465    -0.71900
C2259       C  0.69449260  0.49482687  0.14200222     1.00400
O2260       O  0.62245368  0.56302309  0.20278369    -0.60700
O2261       O  0.62252913  0.91813881  0.30695385    -0.55500
O2262       O  0.60682475  0.51284961  0.23049060    -0.92200
O2263       O  0.60335963  0.96048432  0.24926280    -0.90700
O2264       O  0.63216889  0.98668954  0.35728963    -0.91000
O2265       O  0.63235086  0.55211266  0.33224684    -0.89800
C2266       C  0.58912057  0.98961860  0.23953591     1.19300
H2267       H  0.68619107  0.93513802  0.33522084     0.35200
H2268       H  0.69258688  0.55801586  0.28414781     0.46100
H2269       H  0.66596851  0.95760277  0.19519781     0.39600
H2270       H  0.79852335  0.95493419  0.24856561     0.36100
H2271       H  0.68708691  0.55247881  0.38114741     0.27800
H2272       H  0.82047385  0.54788229  0.23795485     0.33800
H2273       H  0.79115532  0.95752864  0.14998489     0.39700
H2274       H  0.63318252  0.99570844  0.38068571     0.34200
H2275       H  0.60844967  0.90337837  0.29437526     0.33000
H2276       H  0.62256614  0.89114277  0.23106498     0.34700
H2277       H  0.70035791  0.90982154  0.16519145     0.33700
H2278       H  0.62436110  0.55730044  0.30852631     0.37700
H2279       H  0.61677169  0.57981111  0.22108788     0.30400
H2280       H  0.81166025  0.89546412  0.34367403     0.34600
H2281       H  0.79517006  0.89858749  0.17484541     0.37500
H2282       H  0.63770379  0.90301117  0.32268788     0.30100
H2283       H  0.63369980  0.57469222  0.18446199     0.43000
H2284       H  0.76041026  0.57185672  0.31573441     0.33000
H2285       H  0.72388077  0.54862601  0.36208220     0.40700
H2286       H  0.71869704  0.88636395  0.19386029     0.32500
H2287       H  0.81724821  0.51608301  0.21617081     0.32600
H2288       H  0.81518691  0.88205632  0.30600783     0.32800
C2289       C  0.65695822  0.70478455  0.23769571    -0.11500
C2290       C  0.62463968  0.71079537  0.23782827    -0.13000
C2291       C  0.70888591  0.70492508  0.20317170    -0.11500
C2292       C  0.71575846  0.70873122  0.17353995    -0.13000
C2293       C  0.70334927  0.65842145  0.23745221    -0.11500
C2294       C  0.70744069  0.62831571  0.23581884    -0.13000
C2295       C  0.69332907  0.57942981  0.03843430    -0.11500
C2296       C  0.68734208  0.55117470  0.03876131    -0.13000
C2297       C  0.68583960  0.50576451  0.07572917    -0.11500
C2298       C  0.68865586  0.50056655  0.10606050    -0.13000
C2299       C  0.61557098  0.51070265  0.02089741    -0.11500
C2300       C  0.64598019  0.51363085  0.02789491    -0.13000
C2301       C  0.98761899  0.70533914  0.10667163    -0.11500
C2302       C  0.98967805  0.70068840  0.07625536    -0.13000
C2303       C  0.55954862  0.69545040  0.02046397    -0.11500
C2304       C  0.52914091  0.69264834  0.02762455    -0.12600
C2305       C  0.98653597  0.65591909  0.03905004    -0.11500
C2306       C  0.98047474  0.62770813  0.03840542    -0.13000
C2307       C  0.97231743  0.54764329  0.23837125    -0.11500
C2308       C  0.96824122  0.57772237  0.23668040    -0.13000
C2309       C  0.55066772  0.99600448  0.23802601    -0.11500
C2310       C  0.51848353  0.50125929  0.23689149    -0.13000
C2311       C  0.96651298  0.50206724  0.20309977    -0.11500
C2312       C  0.95930840  0.49932043  0.17331792    -0.13000
C2313       C  0.71139278  0.96266745  0.01298345    -0.14600
C2314       C  0.71013978  0.99572178  0.01773120    -0.29800
H2315       H  0.69169673  0.95015571  0.02599136     0.14400
H2316       H  0.72973144  0.50850280  0.00410989     0.15000
C2317       C  0.73634920  0.90724510  0.49279711    -0.11500
C2318       C  0.73173112  0.87858177  0.49366084    -0.13000
C2319       C  0.80590306  0.94853560  0.01201790    -0.11500
C2320       C  0.77601744  0.94600611  0.50471492    -0.13000
C2321       C  0.73688956  0.95642823  0.42471185    -0.11500
C2322       C  0.73864365  0.95202997  0.45518837    -0.13000
C2323       C  0.96319897  0.74444061  0.01331415    -0.14600
C2324       C  0.96415214  0.71145520  0.01819686    -0.29800
H2325       H  0.98311472  0.75684076  0.02611755     0.14400
H2326       H  0.94413577  0.69917703  0.00537787     0.15000
C2327       C  0.93831615  0.75001739  0.42448354    -0.11500
C2328       C  0.93692546  0.75466418  0.45495448    -0.13000
C2329       C  0.86897849  0.75884723  0.01249254    -0.11500
C2330       C  0.89941053  0.76114827  0.50434699    -0.13000
C2331       C  0.93943246  0.79975495  0.49219996    -0.11500
C2332       C  0.94384918  0.82853888  0.49256952    -0.13000
C2333       C  0.71226635  0.74421135  0.26966579    -0.14600
C2334       C  0.71429932  0.71076976  0.26590383    -0.29800
H2335       H  0.69730866  0.76017059  0.25065022     0.14400
H2336       H  0.72957218  0.69450005  0.28445394     0.15000
C2337       C  0.80152872  0.74179967  0.30023643    -0.11500
C2338       C  0.76930175  0.74890850  0.29942845    -0.13000
C2339       C  0.70721780  0.75422234  0.36191313    -0.11500
C2340       C  0.71528083  0.75525626  0.33212443    -0.13000
C2341       C  0.72579512  0.79719863  0.29329774    -0.11500
C2342       C  0.72234608  0.82726000  0.29131921    -0.13000
C2343       C  0.96330147  0.96158292  0.26981310    -0.14600
C2344       C  0.96128197  0.99503220  0.26611012    -0.29800
H2345       H  0.97810678  0.94566730  0.25067403     0.14400
H2346       H  0.94615405  0.01124006  0.28479276     0.15000
C2347       C  0.95022404  0.90856876  0.29365307    -0.11500
C2348       C  0.95389389  0.87852492  0.29190444    -0.13000
C2349       C  0.96823280  0.95134640  0.36217256    -0.11500
C2350       C  0.96045192  0.95044072  0.33232267    -0.13000
C2351       C  0.90633080  0.95659954  0.29983304    -0.11500
C2352       C  0.87408138  0.96374580  0.30088475    -0.13000
C2353       C  0.94541542  0.94473586  0.79834228    -0.00700
C2354       C  0.73046381  0.76084962  0.79851558    -0.00700
C2355       C  0.93483151  0.76491418  0.99142807    -0.00700
C2356       C  0.74001538  0.94214056  0.99135361    -0.00700
C2357       C  0.97939208  0.51089092  0.73655904    -0.00700
C2358       C  0.49241754  0.69064114  0.53988024    -0.00700
C2359       C  0.68250943  0.51615314  0.54009937    -0.00700
C2360       C  0.69591552  0.69515204  0.73655166    -0.00700
Zr2361     Zr  0.92471132  0.94532101  0.97518990     2.17500
O2362       O  0.87880441  0.93604330  0.93387217    -0.49500
O2363       O  0.93298724  0.88468362  0.97863132    -0.72700
O2364       O  0.94467264  0.94447809  0.91573493    -0.79500
O2365       O  0.85283517  0.96359332  0.54570154    -0.81300
O2366       O  0.99707849  0.96535948  0.91134211    -0.76900
O2367       O  0.86214428  0.94762671  0.98927815    -0.88500
O2368       O  0.97337397  0.86722781  0.51875195    -0.74500
O2369       O  0.98746338  0.92972000  0.98270599    -0.84000
O2370       O  0.93200406  0.93058219  0.53377053    -0.83700
O2371       O  0.94940994  0.99471376  0.96061156    -0.70400
O2372       O  0.89959867  0.99367736  0.50774380    -0.82600
Zr2373     Zr  0.99778671  0.01169324  0.55995330     2.26400
Zr2374     Zr  0.51275398  0.97905352  0.96916632     2.06300
Zr2375     Zr  0.90871575  0.97892228  0.56645974     2.10000
Zr2376     Zr  0.99477220  0.91565029  0.54159860     1.78800
O2377       O  0.86296987  0.52203147  0.58676580    -0.91400
O2378       O  0.54923249  0.88204680  0.51964783    -0.39200
O2379       O  0.97170043  0.96340936  0.57468346    -0.75800
O2380       O  0.52263830  0.96265576  0.52836226    -0.94500
O2381       O  0.98870302  0.52655370  0.50156517    -0.87800
O2382       O  0.93438673  0.52665138  0.55292590    -0.90600
C2383       C  0.95110468  0.86201435  0.99699881     1.03100
C2384       C  0.84247525  0.95391231  0.51672204     1.16100
C2385       C  0.97048868  0.95347260  0.89847618     1.06800
O2386       O  0.56060756  0.93617913  0.94976115    -0.92800
O2387       O  0.56823013  0.99688175  0.98848426    -0.88500
O2388       O  0.55941681  0.51228283  0.54415614    -0.81700
C2389       C  0.57900758  0.00656161  0.51728520     1.13500
O2390       O  0.87459625  0.54525450  0.95481498    -0.94800
Zr2391     Zr  0.92570983  0.54107233  0.49415135     1.88900
O2392       O  0.98989163  0.57155106  0.55526589    -0.71400
O2393       O  0.52915422  0.52031484  0.93065210    -0.50700
O2394       O  0.93944045  0.57127411  0.94253862    -0.95400
O2395       O  0.87599307  0.57986085  0.51760378    -0.52600
O2396       O  0.95167409  0.58876718  0.51193298    -0.71900
C2397       C  0.97385881  0.59384454  0.53517164     1.00400
O2398       O  0.53489108  0.02377780  0.60802096    -0.60700
O2399       O  0.88966143  0.93912598  0.60661099    -0.55500
O2400       O  0.98183477  0.50582380  0.61954005    -0.92200
O2401       O  0.92732485  0.98915981  0.62443560    -0.90700
O2402       O  0.97721240  0.88695077  0.59203066    -0.91000
O2403       O  0.54135697  0.90437898  0.58530495    -0.89800
C2404       C  0.95583580  0.49747349  0.63693743     1.19300
H2405       H  0.91921673  0.91243188  0.53944792     0.35200
H2406       H  0.54773159  0.95580476  0.53308620     0.46100
H2407       H  0.92557499  0.54487400  0.56799358     0.39600
H2408       H  0.94472118  0.50149871  0.93689936     0.36100
H2409       H  0.54952780  0.85966345  0.52982142     0.27800
H2410       H  0.54456721  0.50774941  0.91314120     0.33800
H2411       H  0.92643519  0.59418679  0.94541404     0.39700
H2412       H  0.98478168  0.86295488  0.58729244     0.34200
H2413       H  0.86425396  0.94772035  0.61160772     0.33000
H2414       H  0.85745213  0.51527404  0.61021290     0.34700
H2415       H  0.87767045  0.60138853  0.50626196     0.33700
H2416       H  0.54367677  0.92665913  0.59456976     0.37700
H2417       H  0.55470401  0.00482011  0.60937728     0.30400
H2418       H  0.88850275  0.91538804  0.92146549     0.34600
H2419       H  0.87036672  0.56850209  0.94635785     0.37500
H2420       H  0.88892469  0.91849315  0.59333018     0.30100
H2421       H  0.54631322  0.04308670  0.60083937     0.43000
H2422       H  0.57254536  0.92705090  0.97095271     0.33000
H2423       H  0.54321787  0.87764307  0.99460282     0.40700
H2424       H  0.88229959  0.58351770  0.54165842     0.32500
H2425       H  0.00704053  0.52890402  0.91752775     0.32600
H2426       H  0.87766381  0.95417486  0.91680161     0.32800
Zr2427     Zr  0.91929857  0.77030436  0.80545730     2.17500
O2428       O  0.87664619  0.81698859  0.82677181    -0.49500
O2429       O  0.92648618  0.76424781  0.86768924    -0.72700
O2430       O  0.85709694  0.75910501  0.80660243    -0.79500
O2431       O  0.98745950  0.82790776  0.77769074    -0.81300
O2432       O  0.85415786  0.70697641  0.78650138    -0.76900
O2433       O  0.93169924  0.82777891  0.79976705    -0.88500
O2434       O  0.96797832  0.71938863  0.88043362    -0.74500
O2435       O  0.93113291  0.71213768  0.81732753    -0.84000
O2436       O  0.98209055  0.75782488  0.81608618    -0.83700
O2437       O  0.90162594  0.74379356  0.75434751    -0.70400
O2438       O  0.94855919  0.78455753  0.75420306    -0.82600
Zr2439     Zr  0.50590635  0.68474400  0.72603997     2.26400
Zr2440     Zr  0.91400255  0.68526898  0.76675171     2.06300
Zr2441     Zr  0.51132491  0.77087973  0.76435334     2.10000
Zr2442     Zr  0.99406761  0.69950570  0.82694532     1.78800
O2443       O  0.53098448  0.80565640  0.71962133    -0.91400
O2444       O  0.98218774  0.64980892  0.85717928    -0.39200
O2445       O  0.52360335  0.71254251  0.77588415    -0.75800
O2446       O  0.97695230  0.67089896  0.77804365    -0.94500
O2447       O  0.94326848  0.69812390  0.71504273    -0.87800
O2448       O  0.99516343  0.74285571  0.71423138    -0.90600
C2449       C  0.94457438  0.74407674  0.88885721     1.03100
C2450       C  0.95773205  0.84257750  0.78978628     1.16100
C2451       C  0.83988171  0.73511695  0.79877460     1.06800
O2452       O  0.89624101  0.64807993  0.81022714    -0.92800
O2453       O  0.93436907  0.62842081  0.74935067    -0.88500
O2454       O  0.99026713  0.62762164  0.72720415    -0.81700
C2455       C  0.96367867  0.61333700  0.73679781     1.13500
O2456       O  0.88331793  0.80237715  0.69673267    -0.94800
Zr2457     Zr  0.93255541  0.75663874  0.70411905     1.88900
O2458       O  0.50015319  0.69140898  0.66373074    -0.71400
O2459       O  0.87229753  0.67065444  0.72389315    -0.50700
O2460       O  0.88141962  0.73982964  0.67449165    -0.95400
O2461       O  0.95177416  0.80372769  0.67431097    -0.52600
O2462       O  0.95650270  0.73424399  0.65072402    -0.71900
C2463       C  0.98093451  0.71035181  0.64246269     1.00400
O2464       O  0.55479295  0.64286519  0.70615947    -0.60700
O2465       O  0.55239185  0.78799502  0.80648922    -0.55500
O2466       O  0.56860481  0.69362392  0.73085706    -0.92200
O2467       O  0.57171999  0.74623287  0.74963632    -0.90700
O2468       O  0.54402941  0.72023136  0.85515626    -0.91000
O2469       O  0.54456207  0.65550057  0.83327069    -0.89800
C2470       C  0.58599453  0.71741676  0.73906601     1.19300
H2471       H  0.98897028  0.77060245  0.83510794     0.35200
H2472       H  0.98333137  0.64785866  0.78453896     0.46100
H2473       H  0.50909626  0.74851766  0.69494227     0.39600
H2474       H  0.87680824  0.75069987  0.74857693     0.36100
H2475       H  0.99272424  0.65147145  0.88013800     0.27800
H2476       H  0.85545640  0.65877098  0.73668158     0.33800
H2477       H  0.88430067  0.74598616  0.65031676     0.39700
H2478       H  0.54245507  0.71340052  0.87929279     0.34200
H2479       H  0.56626600  0.80290403  0.79387845     0.33000
H2480       H  0.55141713  0.81490580  0.72971540     0.34700
H2481       H  0.97612878  0.79549828  0.66569199     0.33700
H2482       H  0.55452354  0.65195711  0.80996530     0.37700
H2483       H  0.55925269  0.62625215  0.72478186     0.30400
H2484       H  0.86431811  0.80817159  0.84630173     0.34600
H2485       H  0.88246048  0.80744410  0.67200245     0.37500
H2486       H  0.53724397  0.80297019  0.82236884     0.30100
H2487       H  0.54480682  0.63101669  0.68719823     0.43000
H2488       H  0.89183770  0.66197756  0.83100293     0.33000
H2489       H  0.95600582  0.65348224  0.86110904     0.40700
H2490       H  0.95551461  0.81972262  0.69255891     0.32500
H2491       H  0.85786980  0.69213029  0.71730181     0.32600
H2492       H  0.85807933  0.82180930  0.80887026     0.32800
Zr2493     Zr  0.75035989  0.76174718  0.97532701     2.17500
O2494       O  0.79596553  0.77053706  0.93345141    -0.49500
O2495       O  0.74231091  0.82234666  0.97845962    -0.72700
O2496       O  0.73065698  0.76202696  0.91578582    -0.79500
O2497       O  0.82221867  0.74382659  0.54512299    -0.81300
O2498       O  0.67796036  0.74166067  0.91154994    -0.76900
O2499       O  0.81255319  0.76062777  0.99010819    -0.88500
O2500       O  0.70283543  0.84000445  0.52074455    -0.74500
O2501       O  0.68757514  0.77721696  0.98287143    -0.84000
O2502       O  0.74271807  0.77694096  0.53377296    -0.83700
O2503       O  0.72596235  0.71216314  0.96106981    -0.70400
O2504       O  0.77547394  0.71398671  0.50792069    -0.82600
Zr2505     Zr  0.67726796  0.69552077  0.56004555     2.26400
Zr2506     Zr  0.66258081  0.72770874  0.96949506     2.06300
Zr2507     Zr  0.76619702  0.72887332  0.56656702     2.10000
Zr2508     Zr  0.67991277  0.79166882  0.54175102     1.78800
O2509       O  0.81145653  0.68371244  0.58619473    -0.91400
O2510       O  0.62731289  0.82740069  0.51965510    -0.39200
O2511       O  0.70314315  0.74398853  0.57487003    -0.75800
O2512       O  0.65221973  0.74425002  0.52814940    -0.94500
O2513       O  0.68628784  0.67992737  0.50194614    -0.87800
O2514       O  0.74027248  0.67998834  0.55328908    -0.90600
C2515       C  0.72439808  0.84494094  0.99703496     1.03100
C2516       C  0.83255981  0.75381050  0.51620831     1.16100
C2517       C  0.70473054  0.75317515  0.89858208     1.06800
O2518       O  0.61446736  0.77048954  0.95029545    -0.92800
O2519       O  0.60727842  0.70926879  0.98834803    -0.88500
O2520       O  0.61490554  0.69576436  0.54455381    -0.81700
C2521       C  0.59579681  0.70042165  0.51749036     1.13500
O2522       O  0.80143568  0.65621894  0.95703343    -0.94800
Zr2523     Zr  0.74927138  0.66559851  0.49456329     1.88900
O2524       O  0.68452053  0.63507482  0.55509369    -0.71400
O2525       O  0.64800915  0.68480868  0.93064948    -0.50700
O2526       O  0.73522827  0.63649729  0.94361988    -0.95400
O2527       O  0.79935782  0.62712776  0.51789425    -0.52600
O2528       O  0.72388250  0.61765119  0.51268519    -0.71900
C2529       C  0.70116443  0.61267456  0.53548049     1.00400
O2530       O  0.64092012  0.68046422  0.60748271    -0.60700
O2531       O  0.78425856  0.76895958  0.60697656    -0.55500
O2532       O  0.69344627  0.70103957  0.61970385    -0.92200
O2533       O  0.74740320  0.71914537  0.62448595    -0.90700
O2534       O  0.69595597  0.82075270  0.59251356    -0.91000
O2535       O  0.63035813  0.80081938  0.58208680    -0.89800
C2536       C  0.71937668  0.70953127  0.63714128     1.19300
H2537       H  0.75556806  0.79503321  0.53949308     0.35200
H2538       H  0.62712226  0.75120860  0.53274432     0.46100
H2539       H  0.74903048  0.66174733  0.56835956     0.39600
H2540       H  0.73155936  0.70512583  0.93794176     0.36100
H2541       H  0.62953610  0.85000178  0.52809847     0.27800
H2542       H  0.63183727  0.69693732  0.91342401     0.33800
H2543       H  0.74539824  0.61282078  0.94733341     0.39700
H2544       H  0.68137081  0.84313874  0.59114175     0.34200
H2545       H  0.80965233  0.76058002  0.61224382     0.33000
H2546       H  0.82088080  0.69222469  0.60749932     0.34700
H2547       H  0.79738938  0.60534762  0.50723286     0.33700
H2548       H  0.63329860  0.78042801  0.59633101     0.37700
H2549       H  0.62106369  0.69923952  0.61005026     0.30400
H2550       H  0.78589440  0.79049617  0.92011233     0.34600
H2551       H  0.80641782  0.63184682  0.95312150     0.37500
H2552       H  0.78493891  0.78962153  0.59373560     0.30100
H2553       H  0.62943570  0.66152078  0.59934117     0.43000
H2554       H  0.62667409  0.78844225  0.94087150     0.33000
H2555       H  0.63316822  0.83146834  0.99552897     0.40700
H2556       H  0.79358761  0.62408316  0.54219803     0.32500
H2557       H  0.67050206  0.67712114  0.91812079     0.32600
H2558       H  0.79775194  0.75163525  0.91723252     0.32800
Zr2559     Zr  0.75609147  0.93513549  0.80493918     2.17500
O2560       O  0.79829653  0.88675191  0.82317439    -0.49500
O2561       O  0.74970784  0.94128666  0.86732593    -0.72700
O2562       O  0.81852782  0.94560587  0.80604943    -0.79500
O2563       O  0.68762756  0.87782949  0.77731079    -0.81300
O2564       O  0.82176263  0.99715236  0.78446516    -0.76900
O2565       O  0.74301392  0.87792240  0.80025312    -0.88500
O2566       O  0.70681913  0.98502427  0.88011747    -0.74500
O2567       O  0.74488401  0.99341768  0.81670124    -0.84000
O2568       O  0.69340662  0.94780904  0.81600619    -0.83700
O2569       O  0.77354463  0.96141982  0.75358650    -0.70400
O2570       O  0.72606934  0.92118662  0.75402970    -0.82600
Zr2571     Zr  0.66994529  0.52079418  0.72591144     2.26400
Zr2572     Zr  0.76174969  0.51984948  0.76624404     2.06300
Zr2573     Zr  0.66344144  0.93534839  0.76468004     2.10000
Zr2574     Zr  0.68195801  0.00610598  0.82678686     1.78800
O2575       O  0.64219809  0.90144390  0.72003849    -0.91400
O2576       O  0.69433895  0.55494123  0.85720426    -0.39200
O2577       O  0.65198599  0.99377302  0.77599603    -0.75800
O2578       O  0.69887948  0.53437726  0.77790705    -0.94500
O2579       O  0.73242119  0.50690683  0.71467722    -0.87800
O2580       O  0.67955990  0.96306818  0.71431873    -0.90600
C2581       C  0.73089540  0.96093634  0.88850019     1.03100
C2582       C  0.71720064  0.86312435  0.78980994     1.16100
C2583       C  0.83589773  0.96925090  0.79739605     1.06800
O2584       O  0.78186583  0.55661688  0.80883894    -0.92800
O2585       O  0.74112898  0.57720811  0.75000864    -0.88500
O2586       O  0.68544082  0.57789417  0.72744399    -0.81700
C2587       C  0.71186593  0.59232624  0.73727970     1.13500
O2588       O  0.78996728  0.90159802  0.69693971    -0.94800
Zr2589     Zr  0.74204646  0.94863802  0.70373155     1.88900
O2590       O  0.67561034  0.51416672  0.66367622    -0.71400
O2591       O  0.80189347  0.53328798  0.72141512    -0.50700
O2592       O  0.79376293  0.96409127  0.67390195    -0.95400
O2593       O  0.72111353  0.90223751  0.67417394    -0.52600
O2594       O  0.71859041  0.97127356  0.65034424    -0.71900
C2595       C  0.69421260  0.49456486  0.64237687     1.00400
O2596       O  0.62236013  0.56278513  0.70375829    -0.60700
O2597       O  0.62225343  0.91792539  0.80655793    -0.55500
O2598       O  0.60708655  0.51257225  0.73091323    -0.92200
O2599       O  0.60311139  0.96096997  0.75089891    -0.90700
O2600       O  0.63239621  0.98521382  0.85505165    -0.91000
O2601       O  0.62973245  0.54880870  0.83189313    -0.89800
C2602       C  0.58900268  0.98988808  0.74045393     1.19300
H2603       H  0.68660023  0.93505463  0.83507908     0.35200
H2604       H  0.69250086  0.55737017  0.78455484     0.46100
H2605       H  0.66519068  0.95792990  0.69522149     0.39600
H2606       H  0.79826393  0.95419657  0.74766509     0.36100
H2607       H  0.68383153  0.55323450  0.88016898     0.27800
H2608       H  0.81703999  0.54805536  0.73256383     0.33800
H2609       H  0.79107088  0.95727278  0.64990231     0.39700
H2610       H  0.63155163  0.99507954  0.87819371     0.34200
H2611       H  0.60942067  0.90204204  0.79415806     0.33000
H2612       H  0.62717694  0.88713793  0.73206753     0.34700
H2613       H  0.69638810  0.91066185  0.66667249     0.33700
H2614       H  0.61869793  0.55029140  0.80891875     0.37700
H2615       H  0.61723601  0.57969962  0.72201995     0.30400
H2616       H  0.81126005  0.89426171  0.84298456     0.34600
H2617       H  0.79144590  0.89694727  0.67213625     0.37500
H2618       H  0.63749884  0.90393296  0.82317040     0.30100
H2619       H  0.63331864  0.57425289  0.68509786     0.43000
H2620       H  0.78512600  0.54313173  0.82997987     0.33000
H2621       H  0.72053664  0.55097821  0.86106300     0.40700
H2622       H  0.71818704  0.88592540  0.69236237     0.32500
H2623       H  0.81829022  0.51224778  0.71722434     0.32600
H2624       H  0.81641093  0.88262565  0.80478533     0.32800
C2625       C  0.65676443  0.70494699  0.73755271    -0.11500
C2626       C  0.62444690  0.71100055  0.73761540    -0.13000
C2627       C  0.70894898  0.70465988  0.70319260    -0.11500
C2628       C  0.71603739  0.70832791  0.67355478    -0.13000
C2629       C  0.70308807  0.65840152  0.73791766    -0.11500
C2630       C  0.70742438  0.62824134  0.73662567    -0.13000
C2631       C  0.69330546  0.57949636  0.53852267    -0.11500
C2632       C  0.68761841  0.55113867  0.53912169    -0.13000
C2633       C  0.68600524  0.50564271  0.57608698    -0.11500
C2634       C  0.68858208  0.50035391  0.60641959    -0.13000
C2635       C  0.61568312  0.51113323  0.52112584    -0.11500
C2636       C  0.64614876  0.51374928  0.52827157    -0.13000
C2637       C  0.98674194  0.70491766  0.60648900    -0.11500
C2638       C  0.98946898  0.70027190  0.57606740    -0.13000
C2639       C  0.55907356  0.69599932  0.52070831    -0.11500
C2640       C  0.52863568  0.69315498  0.52771764    -0.12600
C2641       C  0.98766076  0.65532099  0.53866149    -0.11500
C2642       C  0.98183441  0.62699727  0.53813482    -0.13000
C2643       C  0.97215924  0.54750616  0.73797072    -0.11500
C2644       C  0.96798051  0.57756982  0.73631090    -0.13000
C2645       C  0.55052414  0.99633510  0.73893392    -0.11500
C2646       C  0.51885990  0.50119407  0.73780423    -0.13000
C2647       C  0.96635716  0.50163737  0.70310404    -0.11500
C2648       C  0.95922035  0.49848018  0.67338237    -0.13000
C2649       C  0.71165514  0.96282768  0.51270292    -0.14600
C2650       C  0.71033853  0.99585614  0.51763104    -0.29800
H2651       H  0.69182577  0.95023614  0.52539505     0.14400
H2652       H  0.72981003  0.50836304  0.50426189     0.15000
C2653       C  0.73549699  0.90706657  0.99267514    -0.11500
C2654       C  0.73086924  0.87842811  0.99321011    -0.13000
C2655       C  0.80587892  0.94968911  0.51278838    -0.11500
C2656       C  0.77578543  0.94529740  0.00424481    -0.13000
C2657       C  0.73622312  0.95569099  0.92453680    -0.11500
C2658       C  0.73780906  0.95162705  0.95508328    -0.13000
C2659       C  0.96388308  0.74397499  0.51262516    -0.14600
C2660       C  0.96509295  0.71090711  0.51750327    -0.29800
H2661       H  0.98370142  0.75649996  0.52541362     0.14400
H2662       H  0.94524639  0.69849213  0.50459994     0.15000
C2663       C  0.93921298  0.74972003  0.92488706    -0.11500
C2664       C  0.93720955  0.75475827  0.95529565    -0.13000
C2665       C  0.86934508  0.75775309  0.51221234    -0.11500
C2666       C  0.89900040  0.76210060  0.00440424    -0.13000
C2667       C  0.93968016  0.79994875  0.99241160    -0.11500
C2668       C  0.94459766  0.82852216  0.99303882    -0.13000
C2669       C  0.71230109  0.74434156  0.76963381    -0.14600
C2670       C  0.71398329  0.71091678  0.76602840    -0.29800
H2671       H  0.69770191  0.76032518  0.75042271     0.14400
H2672       H  0.72889174  0.69468063  0.78482792     0.15000
C2673       C  0.80145641  0.74135464  0.80102577    -0.11500
C2674       C  0.76926494  0.74880812  0.79981208    -0.13000
C2675       C  0.70751089  0.75431643  0.86203922    -0.11500
C2676       C  0.71519372  0.75534153  0.83217313    -0.13000
C2677       C  0.72575147  0.79724556  0.79349414    -0.11500
C2678       C  0.72198531  0.82731343  0.79161240    -0.13000
C2679       C  0.96360929  0.96140832  0.76960429    -0.14600
C2680       C  0.96172753  0.99488041  0.76621137    -0.29800
H2681       H  0.97834205  0.94556269  0.75037407     0.14400
H2682       H  0.94676500  0.01092568  0.78512989     0.15000
C2683       C  0.95028195  0.90835478  0.79349604    -0.11500
C2684       C  0.95328857  0.87833444  0.79170455    -0.13000
C2685       C  0.96779315  0.95199268  0.86196701    -0.11500
C2686       C  0.96026597  0.95057347  0.83210452    -0.13000
C2687       C  0.90655261  0.95628535  0.79914180    -0.11500
C2688       C  0.87429950  0.96310026  0.79984089    -0.13000
loop_ 
_geom_bond_atom_site_label_1 
_geom_bond_atom_site_label_2 
_geom_bond_distance 
_geom_bond_site_symmetry_2 
_ccdc_geom_bond_type 
C1          C327   1.529       .  S
C1          C331   1.472       .  S
C1          C334   1.470       .  S
C1          C335   1.475       .  S
C2          C317   1.526       .  S
C2          C322   1.473       .  S
C2          C324   1.469       .  S
C2          C325   1.473       .  S
C3          C643   1.521       .  S
C3          C312   1.471       .  S
C3          C314   1.465       .  S
C3          C315   1.461       .  S
C4          C633   1.520       .  S
C4          C301   1.462       .  S
C4          C304   1.466       .  S
C4          C306   1.472       .  S
C5         C1000   1.530   1_545  S
C5          C291   1.471       .  S
C5          C295   1.471       .  S
C5         C1638   1.472       .  S
C6         C1652   1.519       .  S
C6          C288   1.465   1_655  S
C6         C1630   1.473       .  S
C6         C1633   1.460       .  S
C7          C970   1.517   1_545  S
C7          C280   1.459       .  S
C7          C281   1.474       .  S
C7          C284   1.466       .  S
C8          C318   1.527       .  S
C8          C273   1.472       .  S
C8          C275   1.469       .  S
C8          C277   1.473       .  S
Zr9          O10   2.445       .  S
Zr9          O11   2.437       .  S
Zr9          O12   2.449       .  S
Zr9          O15   2.416       .  S
Zr9          O17   2.380       .  S
Zr9          O19   2.405       .  S
Zr9         O354   2.387       .  S
Zr9         O356   2.405       .  S
O10          H66   0.990       .  S
O10          H74   0.991       .  S
O11          C31   1.282       .  A
O12          C33   1.285       .  A
O13         Zr23   2.432       .  S
O13          C32   1.283       .  A
O14       Zr1366   2.428       .  S
O14          C33   1.281       .  A
O15         C368   1.280       .  A
O16         Zr24   2.399       .  S
O16         C367   1.275   1_554  A
O17       Zr1366   2.403       .  S
O17        Zr360   2.384       .  S
O18         Zr23   2.394       .  S
O18         Zr24   2.379       .  S
O18        Zr345   2.386   1_554  S
O18          H53   0.966       .  S
O19       Zr1366   2.405       .  S
O19       Zr1047   2.384       .  S
O19         H728   0.965       .  S
O20         Zr23   2.388       .  S
O20        Zr345   2.404   1_554  S
O20        Zr711   2.385   1_554  S
Zr21       O1390   2.443       .  S
Zr21        O712   2.434       .  S
Zr21        O720   2.437       .  S
Zr21       O2052   2.428       .  S
Zr21         O27   2.392       .  S
Zr21       O1372   2.410       .  S
Zr21        O701   2.378       .  S
Zr21        O702   2.383       .  S
Zr22         O34   2.435       .  S
Zr22        O713   2.436       .  S
Zr22         O35   2.438       .  S
Zr22       O1358   2.434   1_455  S
Zr22       O1361   2.403   1_455  S
Zr22       O1363   2.406   1_455  S
Zr22        O364   2.403       .  S
Zr22       O2381   2.394   1_455  S
Zr23         O47   2.438       .  S
Zr23        O697   2.436       .  S
Zr23         O49   2.429       .  S
Zr23         O27   2.389       .  S
Zr23        O702   2.396       .  S
Zr24         O50   2.436       .  S
Zr24       O1395   2.435       .  S
Zr24       O1370   2.436       .  S
Zr24         O27   2.384       .  S
Zr24        O353   2.385   1_554  S
Zr24       O1372   2.380       .  S
O25        Zr695   2.435   1_545  S
O25          H62   0.990       .  S
O26       Zr1368   2.436   1_455  S
O26          H57   0.990       .  S
O26         H407   0.990   1_554  S
O28       Zr1365   2.410   1_455  S
O28        Zr358   2.403   1_554  S
O28       Zr1368   2.386   1_455  S
O28          H54   0.965       .  S
O29         Zr39   2.381   1_554  S
O29        Zr693   2.376       .  S
O29       Zr2374   2.394   1_544  S
O30         Zr39   2.387   1_554  S
O30        Zr693   2.384       .  S
O30        Zr695   2.396   1_545  S
O30          H55   0.966       .  S
C31         O352   1.276       .  A
C31         C316   1.427       .  S
C32         O351   1.280   1_554  A
C32         C303   1.429       .  S
C33         C333   1.436       .  S
O34          H70   0.990       .  S
O35         C373   1.284       .  A
O36       Zr2037   2.432   1_455  S
O36         C709   1.281       .  A
C37         O371   1.282   1_554  A
C37         O708   1.280       .  A
C37         C955   1.429       .  S
O38        Zr375   2.439       .  S
O38          H67   0.990       .  S
Zr39         O43   2.440   1_556  S
Zr39        O374   2.440       .  S
Zr39        O378   2.439       .  S
Zr39         O44   2.398   1_556  S
Zr39       O1027   2.383   1_545  S
Zr39        O692   2.384   1_546  S
O40        Zr693   2.430       .  S
O40          C45   1.280       .  A
O41        Zr694   2.437   1_545  S
O41          H58   0.990       .  S
O41        H1417   0.990       .  S
O42        Zr375   2.437       .  S
O42          H59   0.990       .  S
O43          H63   0.990       .  S
O43          H72   0.990       .  S
O44          C45   1.275       .  A
C45         C290   1.422       .  S
O46       Zr1365   2.443   1_455  S
O46          H65   0.991       .  S
O46          H69   0.990       .  S
O47          H61   0.990       .  S
O47          H68   0.990       .  S
O48        Zr693   2.437       .  S
O48          C52   1.283   1_545  A
O49         C724   1.282       .  A
O50          H60   0.990       .  S
O51       Zr1368   2.435   1_455  S
O51          H64   0.990       .  S
C52         O721   1.282       .  A
C52         C296   1.437       .  S
H56         O691   0.964   1_545  S
H71         O362   0.990       .  S
H73        O1385   0.990       .  S
Zr75         O76   2.441       .  S
Zr75         O77   2.462       .  S
Zr75         O78   2.458       .  S
Zr75         O81   2.453       .  S
Zr75         O83   2.381       .  S
Zr75         O84   2.387       .  S
Zr75         O85   2.416       .  S
Zr75         O86   2.403       .  S
O76         H132   0.990       .  S
O76         H140   0.991       .  S
O77          C97   1.287       .  A
O78          C99   1.286       .  A
O79       Zr1433   2.418       .  S
O79          C98   1.280       .  A
O80         Zr88   2.423       .  S
O80          C99   1.281       .  A
O81          C98   1.287       .  A
O82         Zr90   2.396       .  S
O82          C97   1.274       .  A
O83         Zr88   2.397       .  S
O83         Zr90   2.385       .  S
O84         Zr90   2.379       .  S
O84       Zr1433   2.396       .  S
O84         H119   0.966       .  S
O85         Zr88   2.400       .  S
O85        Zr105   2.386       .  S
O85         H122   0.964       .  S
O86        Zr105   2.387       .  S
O86       Zr1433   2.384       .  S
Zr87        O112   2.442       .  S
Zr87        O106   2.466       .  S
Zr87        O114   2.455       .  S
Zr87       O1446   2.470   1_455  S
Zr87         O93   2.404       .  S
Zr87       O1438   2.416   1_455  S
Zr87       O1439   2.384   1_455  S
Zr87       O1440   2.388   1_455  S
Zr88        O107   2.437       .  S
Zr88        O100   2.433       .  S
Zr88        O101   2.416       .  S
Zr88         O94   2.404       .  S
Zr88         O95   2.399       .  S
Zr89         O91   2.436       .  S
Zr89        O113   2.439       .  S
Zr89        O115   2.421       .  S
Zr89       O1423   2.422   1_455  S
Zr89         O93   2.386       .  S
Zr89       O1428   2.399   1_455  S
Zr89       O1430   2.387   1_455  S
Zr89       O1440   2.396   1_455  S
Zr90         O92   2.438       .  S
Zr90       O1460   2.435       .  S
Zr90       O1461   2.437       .  S
Zr90         O94   2.377       .  S
Zr90       O1437   2.386       .  S
O91         H128   0.990       .  S
O92         H123   0.990       .  S
O92         H137   0.990       .  S
O93       Zr1434   2.384   1_455  S
O94       Zr1431   2.416       .  S
O94         H120   0.964       .  S
O95        Zr105   2.384       .  S
O95       Zr1431   2.384       .  S
O96        Zr105   2.382       .  S
O96       Zr1431   2.388       .  S
O96       Zr1433   2.395       .  S
O96        H1465   0.966       .  S
C97         C311   1.437       .  S
C98         C332   1.437       .  S
C99         C321   1.436       .  S
O100        H136   0.990       .  S
O101        C103   1.280       .  A
O102      Zr1431   2.471       .  S
O102        C103   1.290       .  A
C103        C292   1.436       .  S
O104       Zr105   2.439       .  S
O104        H133   0.990       .  S
Zr105       O108   2.439       .  S
Zr105       O109   2.439       .  S
Zr105       O110   2.402       .  S
O106       C1455   1.288   1_455  A
O107        H124   0.990       .  S
O107        H139   0.990       .  S
O108        H125   0.990       .  S
O109        H129   0.990       .  S
O109        H138   0.990       .  S
O110        C111   1.275       .  A
C111       O1450   1.288       .  A
C111        C285   1.440       .  S
O112        H131   0.991       .  S
O112        H135   0.990       .  S
O113        H127   0.990       .  S
O113        H134   0.990       .  S
O114        C118   1.287       .  A
O115        C118   1.281       .  A
O116      Zr1434   2.437   1_455  S
O116        H126   0.990       .  S
O117      Zr1434   2.436   1_455  S
O117        H130   0.990       .  S
C118        C274   1.437       .  S
H121       O1440   0.966   1_455  S
Zr141       O142   2.444       .  S
Zr141       O143   2.442       .  S
Zr141       O144   2.447       .  S
Zr141       O147   2.418       .  S
Zr141       O149   2.380       .  S
Zr141       O151   2.406       .  S
Zr141       O486   2.383       .  S
Zr141       O488   2.404       .  S
O142        H198   0.990       .  S
O142        H206   0.991       .  S
O143        C163   1.283       .  A
O144        C165   1.284       .  A
O145       Zr155   2.435       .  S
O145        C164   1.283       .  A
O146       Zr154   2.431       .  S
O146        C165   1.282       .  A
O147        C500   1.280       .  A
O148       Zr156   2.403       .  S
O148        C499   1.276   1_554  A
O149       Zr154   2.403       .  S
O149       Zr492   2.386       .  S
O150       Zr155   2.391       .  S
O150       Zr156   2.376       .  S
O150       Zr477   2.383   1_554  S
O150        H185   0.966       .  S
O151       Zr154   2.406       .  S
O151       Zr507   2.385       .  S
O151        H188   0.964       .  S
O152       Zr155   2.387       .  S
O152       Zr171   2.385   1_554  S
O152       Zr477   2.402   1_554  S
Zr153       O178   2.444       .  S
Zr153       O172   2.432       .  S
Zr153       O180   2.438       .  S
Zr153       O168   2.432       .  S
Zr153       O159   2.394       .  S
Zr153       O160   2.409       .  S
Zr153       O161   2.376       .  S
Zr153       O162   2.384       .  S
Zr154       O173   2.436       .  S
Zr154       O166   2.435       .  S
Zr154       O167   2.435       .  S
Zr154       O496   2.402       .  S
Zr154       O497   2.391       .  S
Zr155       O157   2.436       .  S
Zr155       O179   2.441       .  S
Zr155       O181   2.431       .  S
Zr155       O159   2.391       .  S
Zr155       O162   2.399       .  S
Zr156       O182   2.436       .  S
Zr156       O183   2.436       .  S
Zr156       O158   2.436       .  S
Zr156       O159   2.385       .  S
Zr156       O160   2.381       .  S
Zr156       O485   2.386   1_554  S
O157        H194   0.990       .  S
O158        H189   0.990       .  S
O158        H539   0.990   1_554  S
O160       Zr490   2.403   1_554  S
O160        H186   0.965       .  S
O161       Zr171   2.380   1_554  S
O161       Zr490   2.392   1_554  S
O162       Zr171   2.388   1_554  S
O162        H187   0.966       .  S
C163        O484   1.276       .  A
C163        C302   1.427       .  S
C164        O483   1.280   1_554  A
C164        C313   1.430       .  S
C165        C323   1.436       .  S
O166        H202   0.990       .  S
O167        C505   1.283       .  A
O168        C169   1.281       .  A
C169        O503   1.282   1_554  A
C169        C287   1.429       .  S
O170       Zr507   2.440       .  S
O170        H199   0.990       .  S
Zr171       O175   2.442   1_556  S
Zr171       O506   2.440       .  S
Zr171       O510   2.438       .  S
Zr171       O176   2.403   1_556  S
Zr171       O487   2.387       .  S
O172        C177   1.280       .  A
O173        H190   0.990       .  S
O173        H205   0.990       .  S
O174       Zr507   2.438       .  S
O174        H191   0.990       .  S
O175        H195   0.990       .  S
O175        H204   0.989       .  S
O176        C177   1.276       .  A
C177        C279   1.424       .  S
O178        H197   0.991       .  S
O178        H201   0.991       .  S
O179        H193   0.990       .  S
O179        H200   0.990       .  S
O180        C184   1.284       .  A
O181        C184   1.283       .  A
O182        H192   0.990       .  S
O183        H196   0.990       .  S
C184        C276   1.435       .  S
H203        O494   0.990       .  S
Zr207       O208   2.443       .  S
Zr207       O209   2.465       .  S
Zr207       O210   2.460       .  S
Zr207       O213   2.454       .  S
Zr207       O215   2.382       .  S
Zr207       O216   2.388       .  S
Zr207       O217   2.416       .  S
Zr207       O218   2.403       .  S
O208        H264   0.990       .  S
O208        H272   0.991       .  S
O209        C229   1.288       .  A
O210        C231   1.287       .  A
O211       Zr221   2.423       .  S
O211        C230   1.281       .  A
O212       Zr892   2.430       .  S
O212        C231   1.282       .  A
O213        C230   1.287       .  A
O214       Zr222   2.396       .  S
O214        C229   1.274       .  A
O215       Zr222   2.388       .  S
O215       Zr892   2.397       .  S
O216       Zr221   2.397       .  S
O216       Zr222   2.378       .  S
O216        H251   0.966       .  S
O217       Zr237   2.388       .  S
O217       Zr892   2.400       .  S
O217        H254   0.964       .  S
O218       Zr221   2.387       .  S
O218       Zr237   2.388       .  S
Zr219       O244   2.442       .  S
Zr219       O238   2.461       .  S
Zr219       O246   2.455       .  S
Zr219       O234   2.471       .  S
Zr219       O226   2.414       .  S
Zr219       O227   2.383       .  S
Zr219       O897   2.402   1_545  S
Zr219       O900   2.388   1_545  S
Zr220       O239   2.435       .  S
Zr220       O232   2.436       .  S
Zr220       O233   2.420       .  S
Zr220       O884   2.427   1_545  S
Zr220       O226   2.403       .  S
Zr220       O227   2.400       .  S
Zr220       O887   2.399   1_545  S
Zr220       O889   2.397   1_545  S
Zr221       O223   2.435       .  S
Zr221       O245   2.440       .  S
Zr221       O247   2.422       .  S
Zr221       O225   2.387       .  S
Zr221       O228   2.397       .  S
Zr222       O248   2.436       .  S
Zr222       O921   2.436       .  S
Zr222       O896   2.438       .  S
Zr222       O225   2.381       .  S
Zr222       O898   2.378       .  S
O223        H260   0.990       .  S
O224       Zr894   2.437       .  S
O224        H255   0.990       .  S
O224        H269   0.990       .  S
O225       Zr891   2.403       .  S
O226       Zr894   2.380       .  S
O226        H252   0.964       .  S
O227       Zr909   2.388   1_545  S
O228       Zr237   2.381       .  S
O228       Zr891   2.388       .  S
O228        H253   0.966       .  S
C229        C305   1.438       .  S
C230        C326   1.438       .  S
C231        C336   1.440       .  S
O232        H268   0.990       .  S
O233        C235   1.281       .  A
O234        C235   1.290       .  A
C235        C278   1.439       .  S
O236       Zr237   2.439       .  S
O236        H265   0.990       .  S
Zr237       O240   2.439       .  S
Zr237       O241   2.439       .  S
Zr237       O242   2.408       .  S
Zr237       O899   2.385       .  S
O238        C243   1.287   1_545  A
O239        H256   0.990       .  S
O239        H271   0.990       .  S
O240        H257   0.990       .  S
O241        H261   0.990       .  S
O241        H270   0.990       .  S
O242        C915   1.276       .  A
C243        O914   1.276       .  A
C243        C282   1.440   1_565  S
O244        H263   0.990       .  S
O244        H267   0.990       .  S
O245        H259   0.990       .  S
O245        H266   0.990       .  S
O246        C922   1.288   1_545  A
O247        C250   1.281       .  A
O248        H258   0.990       .  S
O249       Zr894   2.436       .  S
O249        H262   0.990       .  S
C250        O918   1.289       .  A
C250        C293   1.439       .  S
C273        C274   1.208       .  T
C275        C276   1.207       .  T
C277        C278   1.209       .  T
C279        C280   1.201       .  T
C281        C282   1.210       .  T
C283        C709   1.429       .  S
C283        C284   1.204       .  T
C285        C286   1.210       .  T
C286       C1350   1.473       .  S
C287        C288   1.204       .  T
C289       C1350   1.458       .  S
C289        C290   1.200       .  T
C291        C292   1.208       .  T
C293        C966   1.209       .  T
C294       C1349   1.470   1_455  S
C294        C965   1.207   1_545  T
C295        C296   1.208   1_545  T
C297        C340   1.520   1_554  S
C297        C298   1.349       .  D
C297        H299   1.088       .  S
C298        C679   1.520       .  S
C298        H972   1.089       .  S
H300        C970   1.089   1_545  S
C301        C302   1.203       .  T
C303        C640   1.203       .  T
C304        C639   1.204       .  T
C305        C306   1.209       .  T
C307        C339   1.520   1_554  S
C307        C308   1.347       .  D
C307        H309   1.088       .  S
C308       C1350   1.519       .  S
C308        H310   1.089       .  S
C311        C312   1.208       .  T
C313        C650   1.204       .  T
C314        C649   1.203       .  T
C315        C316   1.202       .  T
C317        C318   1.355       .  D
C317        H319   1.088       .  S
C318        H320   1.088       .  S
C321        C322   1.208       .  T
C323        C324   1.207       .  T
C325        C326   1.209       .  T
C327        C328   1.356       .  D
C327        H329   1.088       .  S
C328        C677   1.530       .  S
C328        H330   1.087       .  S
C331        C332   1.208       .  T
C333        C334   1.208       .  T
C335        C336   1.210       .  T
C337        C663   1.529       .  S
C337        C667   1.471       .  S
C337        C670   1.470       .  S
C337        C671   1.474       .  S
C338        C653   1.529       .  S
C338        C658   1.475       .  S
C338        C660   1.470       .  S
C338        C661   1.473       .  S
C339        C648   1.471       .  S
C339        C650   1.466   1_556  S
C339        C651   1.459       .  S
C340        C637   1.463       .  S
C340        C640   1.465   1_556  S
C340        C642   1.470       .  S
C341       C1336   1.530   1_545  S
C341        C627   1.470       .  S
C341       C1974   1.473       .  S
C341        C631   1.471       .  S
C342       C1988   1.517       .  S
C342       C1966   1.471       .  S
C342        C624   1.466   1_655  S
C342       C1969   1.458       .  S
C343       C1306   1.518   1_545  S
C343        C616   1.460       .  S
C343        C617   1.474       .  S
C343        C620   1.468       .  S
C344        C654   1.529       .  S
C344        C609   1.472       .  S
C344        C611   1.469       .  S
C344        C613   1.475       .  S
Zr345       O346   2.445       .  S
Zr345       O347   2.438       .  S
Zr345       O348   2.448       .  S
Zr345       O351   2.420       .  S
Zr345       O353   2.381       .  S
Zr345       O355   2.407       .  S
O346        H402   0.990       .  S
O346        H410   0.991       .  S
O347        C367   1.282       .  A
O348        C369   1.284       .  A
O349       Zr359   2.437       .  S
O349        C368   1.284       .  A
O350      Zr1702   2.432       .  S
O350        C369   1.282       .  A
O352       Zr360   2.405       .  S
O353      Zr1702   2.401       .  S
O354       Zr359   2.394       .  S
O354       Zr360   2.378       .  S
O354        H389   0.966       .  S
O355      Zr1702   2.404       .  S
O355       Zr711   2.384       .  S
O355       H1064   0.964       .  S
O356       Zr359   2.391       .  S
O356      Zr1047   2.385       .  S
Zr357      O1726   2.442       .  S
Zr357      O1048   2.433       .  S
Zr357      O1056   2.434       .  S
Zr357      O2388   2.427       .  S
Zr357       O363   2.392       .  S
Zr357      O1708   2.409       .  S
Zr357      O1037   2.375       .  S
Zr357      O1038   2.385       .  S
Zr358      O1049   2.436       .  S
Zr358       O370   2.435       .  S
Zr358      O1694   2.430   1_455  S
Zr358       O371   2.433       .  S
Zr358      O1697   2.402   1_455  S
Zr358      O1699   2.403   1_455  S
Zr358      O2045   2.392   1_456  S
Zr359      O1033   2.436       .  S
Zr359       O383   2.438       .  S
Zr359       O385   2.436       .  S
Zr359       O363   2.387       .  S
Zr359      O1038   2.397       .  S
Zr360       O386   2.435       .  S
Zr360      O1731   2.435       .  S
Zr360      O1706   2.436       .  S
Zr360       O363   2.384       .  S
Zr360      O1708   2.384       .  S
O361      Zr1031   2.435   1_545  S
O361        H398   0.990       .  S
O362      Zr1704   2.437   1_455  S
O362        H393   0.990       .  S
O364      Zr1701   2.410   1_455  S
O364      Zr1704   2.382   1_455  S
O364        H390   0.965       .  S
O365      Zr1029   2.377       .  S
O365      Zr2038   2.394   1_545  S
O365       Zr375   2.383       .  S
O366      Zr1029   2.385       .  S
O366      Zr1031   2.399   1_545  S
O366       Zr375   2.386       .  S
O366        H391   0.966       .  S
C367        C652   1.425       .  S
C368        C639   1.429       .  S
C369        C669   1.437       .  S
O370        H406   0.990       .  S
O372      Zr2373   2.428   1_455  S
O372       C1045   1.280       .  A
C373       O1044   1.281       .  A
C373       C1291   1.431       .  S
O374        H403   0.990       .  S
Zr375       O379   2.439       .  S
Zr375       O380   2.400       .  S
Zr375       O691   2.384   1_545  S
Zr375      O1028   2.386   1_545  S
O376      Zr1029   2.436       .  S
O376        C381   1.282       .  A
O377      Zr1030   2.436   1_545  S
O377        H394   0.990       .  S
O377       H1753   0.990       .  S
O378        H395   0.990       .  S
O379        H399   0.990       .  S
O379        H408   0.990       .  S
O380        C381   1.276       .  A
C381        C626   1.426       .  S
O382      Zr1701   2.442   1_455  S
O382        H401   0.991       .  S
O382        H405   0.990       .  S
O383        H397   0.990       .  S
O383        H404   0.990       .  S
O384      Zr1029   2.435       .  S
O384        C388   1.283   1_545  A
O385       C1060   1.283       .  A
O386        H396   0.990       .  S
O387      Zr1704   2.435   1_455  S
O387        H400   0.990       .  S
C388       O1057   1.283       .  A
C388        C632   1.437       .  S
H392       O1027   0.964   1_545  S
H409       O1721   0.990       .  S
Zr411       O412   2.442       .  S
Zr411       O413   2.462       .  S
Zr411       O414   2.462       .  S
Zr411       O417   2.452       .  S
Zr411       O419   2.380       .  S
Zr411       O420   2.391       .  S
Zr411       O421   2.413       .  S
Zr411       O422   2.403       .  S
O412        H468   0.990       .  S
O412        H476   0.991       .  S
O413        C433   1.287       .  A
O414        C435   1.287       .  A
O415      Zr1769   2.421       .  S
O415        C434   1.281       .  A
O416       Zr424   2.425       .  S
O416        C435   1.281       .  A
O417        C434   1.287       .  A
O418       Zr426   2.396       .  S
O418        C433   1.274       .  A
O419       Zr424   2.398       .  S
O419       Zr426   2.387       .  S
O420      Zr1769   2.399       .  S
O420       Zr426   2.379       .  S
O420        H455   0.966       .  S
O421       Zr424   2.399       .  S
O421       Zr441   2.385       .  S
O421        H458   0.964       .  S
O422      Zr1769   2.387       .  S
O422       Zr441   2.385       .  S
Zr423       O448   2.441       .  S
Zr423       O442   2.463       .  S
Zr423       O450   2.452       .  S
Zr423      O1782   2.470   1_455  S
Zr423       O429   2.403       .  S
Zr423      O1774   2.416   1_455  S
Zr423      O1775   2.383   1_455  S
Zr423      O1776   2.387   1_455  S
Zr424       O443   2.437       .  S
Zr424       O436   2.435       .  S
Zr424       O437   2.416       .  S
Zr424       O430   2.401       .  S
Zr424       O431   2.402       .  S
Zr425       O427   2.436       .  S
Zr425       O449   2.439       .  S
Zr425      O1759   2.421   1_455  S
Zr425       O451   2.423       .  S
Zr425      O1764   2.399   1_455  S
Zr425      O1766   2.388   1_455  S
Zr425       O429   2.385       .  S
Zr425      O1776   2.394   1_455  S
Zr426      O1796   2.435       .  S
Zr426      O1797   2.437       .  S
Zr426       O428   2.438       .  S
Zr426      O1773   2.382       .  S
Zr426       O430   2.380       .  S
O427        H464   0.990       .  S
O428        H459   0.991       .  S
O428        H473   0.990       .  S
O429      Zr1770   2.385   1_455  S
O430      Zr1767   2.417       .  S
O430        H456   0.964       .  S
O431      Zr1767   2.384       .  S
O431       Zr441   2.387       .  S
O432      Zr1767   2.387       .  S
O432      Zr1769   2.395       .  S
O432       Zr441   2.383       .  S
O432       H1801   0.966       .  S
C433        C647   1.437       .  S
C434        C668   1.436       .  S
C435        C657   1.439       .  S
O436        H472   0.990       .  S
O437        C439   1.280       .  A
O438      Zr1767   2.466       .  S
O438        C439   1.289       .  A
C439        C628   1.435       .  S
O440       Zr441   2.440       .  S
O440        H469   0.990       .  S
Zr441       O444   2.438       .  S
Zr441       O445   2.441       .  S
Zr441       O446   2.402       .  S
O442       C1791   1.287   1_455  A
O443        H460   0.990       .  S
O443        H475   0.990       .  S
O444        H461   0.990       .  S
O445        H465   0.990       .  S
O445        H474   0.990       .  S
O446        C447   1.275       .  A
C447       O1786   1.288       .  A
C447        C621   1.439       .  S
O448        H467   0.991       .  S
O448        H471   0.990       .  S
O449        H463   0.990       .  S
O449        H470   0.990       .  S
O450        C454   1.287       .  A
O451        C454   1.281       .  A
O452      Zr1770   2.435   1_455  S
O452        H462   0.990       .  S
O453      Zr1770   2.437   1_455  S
O453        H466   0.990       .  S
C454        C610   1.437       .  S
H457       O1776   0.966   1_455  S
Zr477       O478   2.444       .  S
Zr477       O479   2.441       .  S
Zr477       O480   2.448       .  S
Zr477       O483   2.419       .  S
Zr477       O485   2.380       .  S
Zr477       O487   2.405       .  S
O478        H534   0.990       .  S
O478        H542   0.991       .  S
O479        C499   1.283       .  A
O480        C501   1.284       .  A
O481       Zr491   2.434       .  S
O481        C500   1.283       .  A
O482       Zr490   2.431       .  S
O482        C501   1.282       .  A
O484       Zr492   2.404       .  S
O485       Zr490   2.401       .  S
O486       Zr491   2.391       .  S
O486       Zr492   2.377       .  S
O486        H521   0.965       .  S
O487       Zr490   2.404       .  S
O487        H524   0.965       .  S
O488       Zr491   2.387       .  S
O488       Zr507   2.384       .  S
Zr489       O514   2.444       .  S
Zr489       O508   2.434       .  S
Zr489       O516   2.435       .  S
Zr489       O504   2.430       .  S
Zr489       O495   2.394       .  S
Zr489       O496   2.409       .  S
Zr489       O497   2.375       .  S
Zr489       O498   2.385       .  S
Zr490       O509   2.435       .  S
Zr490       O502   2.435       .  S
Zr490       O503   2.431       .  S
Zr491       O493   2.435       .  S
Zr491       O515   2.439       .  S
Zr491       O517   2.429       .  S
Zr491       O495   2.391       .  S
Zr491       O498   2.396       .  S
Zr492       O518   2.435       .  S
Zr492       O519   2.436       .  S
Zr492       O494   2.437       .  S
Zr492       O495   2.386       .  S
Zr492       O496   2.382       .  S
O493        H530   0.990       .  S
O494        H525   0.990       .  S
O496        H522   0.965       .  S
O497       Zr507   2.380       .  S
O498       Zr507   2.387       .  S
O498        H523   0.966       .  S
C499        C638   1.428       .  S
C500        C649   1.428       .  S
C501        C659   1.437       .  S
O502        H538   0.990       .  S
O504        C505   1.281       .  A
C505        C623   1.430       .  S
O506        H535   0.990       .  S
Zr507       O511   2.441       .  S
Zr507       O512   2.401       .  S
O508        C513   1.281       .  A
O509        H526   0.990       .  S
O509        H541   0.990       .  S
O510        H527   0.990       .  S
O511        H531   0.990       .  S
O511        H540   0.989       .  S
O512        C513   1.275       .  A
C513        C615   1.425       .  S
O514        H533   0.990       .  S
O514        H537   0.990       .  S
O515        H529   0.990       .  S
O515        H536   0.990       .  S
O516        C520   1.283       .  A
O517        C520   1.282       .  A
O518        H528   0.990       .  S
O519        H532   0.990       .  S
C520        C612   1.434       .  S
Zr543       O544   2.443       .  S
Zr543       O545   2.463       .  S
Zr543       O546   2.457       .  S
Zr543       O549   2.455       .  S
Zr543       O551   2.380       .  S
Zr543       O552   2.386       .  S
Zr543       O553   2.417       .  S
Zr543       O554   2.404       .  S
O544        H600   0.990       .  S
O544        H608   0.991       .  S
O545        C565   1.287       .  A
O546        C567   1.286       .  A
O547       Zr557   2.421       .  S
O547        C566   1.281       .  A
O548      Zr1228   2.429       .  S
O548        C567   1.282       .  A
O549        C566   1.287       .  A
O550       Zr558   2.396       .  S
O550        C565   1.274       .  A
O551      Zr1228   2.398       .  S
O551       Zr558   2.386       .  S
O552       Zr557   2.398       .  S
O552       Zr558   2.379       .  S
O552        H587   0.966       .  S
O553      Zr1228   2.400       .  S
O553       Zr573   2.387       .  S
O553        H590   0.964       .  S
O554       Zr557   2.387       .  S
O554       Zr573   2.388       .  S
Zr555       O580   2.442       .  S
Zr555       O574   2.464       .  S
Zr555       O582   2.456       .  S
Zr555       O570   2.470       .  S
Zr555      O1233   2.405   1_545  S
Zr555       O562   2.416       .  S
Zr555       O563   2.382       .  S
Zr555      O1236   2.387   1_545  S
Zr556       O575   2.434       .  S
Zr556       O568   2.436       .  S
Zr556      O1220   2.427   1_545  S
Zr556       O569   2.423       .  S
Zr556      O1223   2.398   1_545  S
Zr556      O1225   2.402   1_545  S
Zr556       O562   2.401       .  S
Zr556       O563   2.401       .  S
Zr557       O559   2.434       .  S
Zr557       O581   2.440       .  S
Zr557       O583   2.422       .  S
Zr557       O561   2.387       .  S
Zr557       O564   2.397       .  S
Zr558       O584   2.438       .  S
Zr558      O1257   2.435       .  S
Zr558      O1232   2.438       .  S
Zr558       O561   2.385       .  S
Zr558      O1234   2.381       .  S
O559        H596   0.990       .  S
O560      Zr1230   2.437       .  S
O560        H591   0.990       .  S
O560        H605   0.990       .  S
O561      Zr1227   2.405       .  S
O562      Zr1230   2.381       .  S
O562        H588   0.964       .  S
O563      Zr1245   2.387   1_545  S
O564      Zr1227   2.386       .  S
O564       Zr573   2.381       .  S
O564        H589   0.966       .  S
C565        C641   1.436       .  S
C566        C662   1.438       .  S
C567        C672   1.438       .  S
O568        H604   0.990       .  S
O569        C571   1.281       .  A
O570        C571   1.289       .  A
C571        C614   1.440       .  S
O572       Zr573   2.439       .  S
O572        H601   0.990       .  S
Zr573       O576   2.438       .  S
Zr573       O577   2.440       .  S
Zr573       O578   2.404       .  S
Zr573      O1235   2.385       .  S
O574        C579   1.287   1_545  A
O575        H592   0.990       .  S
O575        H607   0.990       .  S
O576        H593   0.990       .  S
O577        H597   0.990       .  S
O577        H606   0.990       .  S
O578       C1251   1.275       .  A
C579       O1250   1.276       .  A
C579        C618   1.440   1_565  S
O580        H599   0.990       .  S
O580        H603   0.990       .  S
O581        H595   0.990       .  S
O581        H602   0.990       .  S
O582       C1258   1.288   1_545  A
O583        C586   1.281       .  A
O584        H594   0.990       .  S
O585      Zr1230   2.436       .  S
O585        H598   0.990       .  S
C586       O1254   1.288       .  A
C586        C629   1.438       .  S
C609        C610   1.208       .  T
C611        C612   1.206       .  T
C613        C614   1.210       .  T
C615        C616   1.201       .  T
C617        C618   1.210       .  T
C619       C1045   1.432       .  S
C619        C620   1.205       .  T
C621        C622   1.210       .  T
C622       C1686   1.474       .  S
C623        C624   1.204       .  T
C625       C1686   1.461       .  S
C625        C626   1.202       .  T
C627        C628   1.207       .  T
C629       C1302   1.209       .  T
C630       C1685   1.472   1_455  S
C630       C1301   1.208   1_545  T
C631        C632   1.208   1_545  T
C633        C634   1.348       .  D
C633        H635   1.088       .  S
C634       C1015   1.519       .  S
C634       H1308   1.089       .  S
H636       C1306   1.089   1_545  S
C637        C638   1.203       .  T
C641        C642   1.208       .  T
C643        C644   1.348       .  D
C643        H645   1.088       .  S
C644       C1686   1.520       .  S
C644        H646   1.089       .  S
C647        C648   1.208       .  T
C651        C652   1.201       .  T
C653        C654   1.356       .  D
C653        H655   1.088       .  S
C654        H656   1.087       .  S
C657        C658   1.209       .  T
C659        C660   1.208       .  T
C661        C662   1.209       .  T
C663        C664   1.355       .  D
C663        H665   1.088       .  S
C664       C1013   1.530       .  S
C664        H666   1.088       .  S
C667        C668   1.207       .  T
C669        C670   1.208       .  T
C671        C672   1.209       .  T
C673        C999   1.530       .  S
C673       C1003   1.473       .  S
C673       C1006   1.471       .  S
C673       C1007   1.473       .  S
C674        C989   1.528       .  S
C674        C994   1.474       .  S
C674        C996   1.471       .  S
C674        C997   1.473       .  S
C675       C1315   1.518       .  S
C675        C984   1.473       .  S
C675        C986   1.465       .  S
C675        C987   1.461       .  S
C676       C1305   1.518       .  S
C676        C973   1.462       .  S
C676        C976   1.465       .  S
C676        C978   1.470       .  S
C677        C963   1.473       .  S
C677       C2310   1.472       .  S
C677        C967   1.469       .  S
C678       C2324   1.518       .  S
C678       C2302   1.471       .  S
C678        C960   1.468   1_655  S
C678       C2305   1.460       .  S
C679        C952   1.461       .  S
C679        C953   1.473       .  S
C679        C956   1.466       .  S
C680        C990   1.528       .  S
C680        C945   1.471       .  S
C680        C947   1.469       .  S
C680        C949   1.473       .  S
Zr681       O682   2.443       .  S
Zr681       O683   2.437       .  S
Zr681       O684   2.448       .  S
Zr681       O687   2.418       .  S
Zr681       O689   2.380       .  S
Zr681      O1026   2.385       .  S
Zr681       O691   2.406       .  S
Zr681      O1028   2.403       .  S
O682        H738   0.990       .  S
O682        H746   0.990       .  S
O683        C703   1.281       .  A
O684        C705   1.284       .  A
O685       Zr695   2.428       .  S
O685        C704   1.282       .  A
O686      Zr2038   2.435       .  S
O686        C705   1.282       .  A
O687       C1040   1.280       .  A
O688       Zr696   2.401       .  S
O688       C1039   1.275   1_554  A
O689      Zr2038   2.403       .  S
O689      Zr1032   2.387       .  S
O690      Zr1017   2.384   1_554  S
O690       Zr695   2.394       .  S
O690       Zr696   2.376       .  S
O690        H725   0.965       .  S
O691      Zr2038   2.404       .  S
O692      Zr1017   2.402   1_554  S
O692       Zr695   2.391       .  S
Zr693      O2062   2.442       .  S
Zr693      O1380   2.429       .  S
Zr693       O699   2.392   1_545  S
Zr693      O2044   2.410   1_545  S
Zr694       O706   2.435       .  S
Zr694      O2030   2.435   1_455  S
Zr694       O707   2.440       .  S
Zr694      O2033   2.404   1_455  S
Zr694      O2035   2.404   1_455  S
Zr694      O1036   2.404       .  S
Zr694      O1709   2.393   1_465  S
Zr695       O719   2.440       .  S
Zr695       O721   2.432       .  S
Zr695       O699   2.389       .  S
Zr696       O722   2.437       .  S
Zr696      O2067   2.435       .  S
Zr696      O2042   2.437       .  S
Zr696      O1025   2.386   1_554  S
Zr696       O699   2.385       .  S
Zr696      O2044   2.384       .  S
O697        H734   0.990       .  S
O698      Zr2040   2.437   1_455  S
O698        H729   0.990       .  S
O698       H1079   0.990   1_554  S
O700      Zr2037   2.408   1_465  S
O700      Zr1030   2.403   1_554  S
O700      Zr2040   2.384   1_455  S
O700        H726   0.965       .  S
O701      Zr1702   2.394   1_554  S
O701       Zr711   2.382   1_554  S
O702       Zr711   2.388   1_554  S
O702        H727   0.966       .  S
C703       O1024   1.276       .  A
C703        C988   1.427       .  S
C704       O1023   1.280   1_554  A
C704        C975   1.427       .  S
C705       C1005   1.437       .  S
O706        H742   0.990       .  S
O707       C1045   1.284   1_565  A
O708      Zr1365   2.427   1_455  S
C709       O1043   1.282   1_544  A
O710      Zr1047   2.442       .  S
O710        H739   0.990       .  S
Zr711      O1046   2.440       .  S
Zr711      O1050   2.437       .  S
Zr711       O715   2.442   1_556  S
Zr711       O716   2.401   1_556  S
O712        C717   1.281       .  A
O713        H730   0.990       .  S
O713       H2089   0.990       .  S
O714      Zr1047   2.438       .  S
O714        H731   0.990       .  S
O715        H735   0.991       .  S
O715        H744   0.989       .  S
O716        C717   1.276       .  A
C717        C962   1.425       .  S
O718      Zr2037   2.443   1_455  S
O718        H737   0.991       .  S
O718        H741   0.990       .  S
O719        H733   0.990       .  S
O719        H740   0.990       .  S
O720        C724   1.283       .  A
O722        H732   0.990       .  S
O723      Zr2040   2.435   1_455  S
O723        H736   0.990       .  S
C724        C968   1.435       .  S
H743       O1034   0.990       .  S
H745       O2057   0.990       .  S
Zr747       O748   2.441       .  S
Zr747       O749   2.462       .  S
Zr747       O750   2.458       .  S
Zr747       O753   2.453       .  S
Zr747       O755   2.382       .  S
Zr747       O756   2.386       .  S
Zr747       O757   2.417       .  S
Zr747       O758   2.403       .  S
O748        H804   0.990       .  S
O748        H812   0.991       .  S
O749        C769   1.287       .  A
O750        C771   1.286       .  A
O751      Zr2105   2.422       .  S
O751        C770   1.281       .  A
O752       Zr760   2.425       .  S
O752        C771   1.281       .  A
O753        C770   1.287       .  A
O754       Zr762   2.401       .  S
O754        C769   1.275       .  A
O755       Zr760   2.399       .  S
O755       Zr762   2.387       .  S
O756      Zr2105   2.398       .  S
O756       Zr762   2.378       .  S
O756        H791   0.966       .  S
O757       Zr760   2.400       .  S
O757       Zr777   2.388       .  S
O757        H794   0.964       .  S
O758      Zr2105   2.386       .  S
O758       Zr777   2.385       .  S
Zr759       O784   2.442       .  S
Zr759       O778   2.459       .  S
Zr759       O786   2.452       .  S
Zr759      O2118   2.468   1_455  S
Zr759       O765   2.401       .  S
Zr759      O2110   2.414   1_455  S
Zr759      O2111   2.384   1_455  S
Zr759      O2112   2.389   1_455  S
Zr760       O779   2.437       .  S
Zr760       O772   2.436       .  S
Zr760       O773   2.418       .  S
Zr760       O766   2.404       .  S
Zr760       O767   2.402       .  S
Zr761       O763   2.436       .  S
Zr761       O785   2.438       .  S
Zr761      O2095   2.420   1_455  S
Zr761       O787   2.419       .  S
Zr761      O2100   2.402   1_455  S
Zr761      O2102   2.387   1_455  S
Zr761       O765   2.384       .  S
Zr761      O2112   2.393   1_455  S
Zr762      O2132   2.435       .  S
Zr762      O2133   2.437       .  S
Zr762       O764   2.437       .  S
Zr762      O2109   2.383       .  S
Zr762       O766   2.380       .  S
O763        H800   0.990       .  S
O764        H795   0.990       .  S
O764        H809   0.990       .  S
O765      Zr2106   2.382   1_455  S
O766      Zr2103   2.415       .  S
O766        H792   0.964       .  S
O767      Zr2103   2.385       .  S
O767       Zr777   2.388       .  S
O768      Zr2103   2.390       .  S
O768      Zr2105   2.397       .  S
O768       Zr777   2.380       .  S
O768       H2137   0.966       .  S
C769        C983   1.439       .  S
C770       C1004   1.438       .  S
C771        C993   1.437       .  S
O772        H808   0.990       .  S
O773        C775   1.280       .  A
O774      Zr2103   2.472       .  S
O774        C775   1.289       .  A
C775        C964   1.438       .  S
O776       Zr777   2.439       .  S
O776        H805   0.991       .  S
Zr777       O780   2.439       .  S
Zr777       O781   2.440       .  S
Zr777       O782   2.403       .  S
O778       C2127   1.287   1_455  A
O779        H796   0.990       .  S
O779        H811   0.990       .  S
O780        H797   0.990       .  S
O781        H801   0.990       .  S
O781        H810   0.990       .  S
O782        C783   1.275       .  A
C783       O2122   1.287       .  A
C783        C957   1.437       .  S
O784        H803   0.991       .  S
O784        H807   0.990       .  S
O785        H799   0.990       .  S
O785        H806   0.990       .  S
O786        C790   1.287       .  A
O787        C790   1.281       .  A
O788      Zr2106   2.437   1_455  S
O788        H798   0.990       .  S
O789      Zr2106   2.435   1_455  S
O789        H802   0.990       .  S
C790        C946   1.436       .  S
H793       O2112   0.966   1_455  S
Zr813       O814   2.444       .  S
Zr813       O815   2.439       .  S
Zr813       O816   2.447       .  S
Zr813       O819   2.415       .  S
Zr813       O821   2.381       .  S
Zr813      O1158   2.384       .  S
Zr813       O823   2.403       .  S
Zr813      O1160   2.404       .  S
O814        H870   0.990       .  S
O814        H878   0.991       .  S
O815        C835   1.283       .  A
O816        C837   1.284       .  A
O817       Zr827   2.439       .  S
O817        C836   1.284       .  A
O818       Zr826   2.436       .  S
O818        C837   1.282       .  A
O819       C1172   1.279       .  A
O820       Zr828   2.402       .  S
O820       C1171   1.276   1_554  A
O821       Zr826   2.404       .  S
O821      Zr1164   2.389       .  S
O822      Zr1149   2.386   1_554  S
O822       Zr827   2.391       .  S
O822       Zr828   2.377       .  S
O822        H857   0.965       .  S
O823       Zr826   2.407       .  S
O823      Zr1179   2.386       .  S
O823        H860   0.964       .  S
O824      Zr1149   2.405   1_554  S
O824       Zr827   2.388       .  S
O824       Zr843   2.386   1_554  S
Zr825       O850   2.443       .  S
Zr825       O844   2.435       .  S
Zr825       O852   2.437       .  S
Zr825       O840   2.433       .  S
Zr825       O831   2.395       .  S
Zr825       O832   2.410       .  S
Zr825       O833   2.376       .  S
Zr825       O834   2.385       .  S
Zr826       O845   2.437       .  S
Zr826       O838   2.435       .  S
Zr826       O839   2.441       .  S
Zr826      O1168   2.403       .  S
Zr826      O1169   2.394       .  S
Zr827       O829   2.435       .  S
Zr827       O851   2.440       .  S
Zr827       O853   2.429       .  S
Zr827       O831   2.392       .  S
Zr827       O834   2.397       .  S
Zr828       O854   2.435       .  S
Zr828       O855   2.436       .  S
Zr828       O830   2.438       .  S
Zr828      O1157   2.389   1_554  S
Zr828       O831   2.382       .  S
Zr828       O832   2.384       .  S
O829        H866   0.990       .  S
O830        H861   0.990       .  S
O830       H1211   0.990   1_554  S
O832      Zr1162   2.402   1_554  S
O832        H858   0.965       .  S
O833      Zr1162   2.394   1_554  S
O833       Zr843   2.381   1_554  S
O834       Zr843   2.386   1_554  S
O834        H859   0.966       .  S
C835       O1156   1.277       .  A
C835        C974   1.428       .  S
C836       O1155   1.280   1_554  A
C836        C985   1.430       .  S
C837        C995   1.438       .  S
O838        H874   0.990       .  S
O839       C1177   1.284       .  A
O840        C841   1.281       .  A
C841       O1175   1.284   1_554  A
C841        C959   1.433       .  S
O842      Zr1179   2.440       .  S
O842        H871   0.991       .  S
Zr843      O1178   2.440       .  S
Zr843      O1182   2.438       .  S
Zr843       O847   2.443   1_556  S
Zr843       O848   2.399   1_556  S
Zr843      O1159   2.383       .  S
O844        C849   1.282       .  A
O845        H862   0.990       .  S
O845        H877   0.990       .  S
O846      Zr1179   2.439       .  S
O846        H863   0.990       .  S
O847        H867   0.990       .  S
O847        H876   0.989       .  S
O848        C849   1.275       .  A
C849        C951   1.425       .  S
O850        H869   0.991       .  S
O850        H873   0.990       .  S
O851        H865   0.990       .  S
O851        H872   0.990       .  S
O852        C856   1.284       .  A
O853        C856   1.282       .  A
O854        H864   0.990       .  S
O855        H868   0.991       .  S
C856        C948   1.435       .  S
H875       O1166   0.990       .  S
Zr879       O880   2.443       .  S
Zr879       O881   2.462       .  S
Zr879       O882   2.459       .  S
Zr879       O885   2.454       .  S
Zr879       O887   2.380       .  S
Zr879       O888   2.387       .  S
Zr879       O889   2.414       .  S
Zr879       O890   2.403       .  S
O880        H936   0.990       .  S
O880        H944   0.991       .  S
O881        C901   1.287       .  A
O882        C903   1.286       .  A
O883       Zr893   2.425       .  S
O883        C902   1.282       .  A
O884        C903   1.281       .  A
O885        C902   1.287       .  A
O886       Zr894   2.395   1_565  S
O886        C901   1.274       .  A
O887       Zr894   2.387   1_565  S
O888       Zr893   2.398       .  S
O888       Zr894   2.380   1_565  S
O888        H923   0.966       .  S
O889       Zr909   2.387       .  S
O889        H926   0.964       .  S
O890       Zr893   2.385       .  S
O890       Zr909   2.387       .  S
Zr891       O916   2.442       .  S
Zr891       O910   2.460       .  S
Zr891       O918   2.461       .  S
Zr891       O906   2.471       .  S
Zr891       O898   2.419       .  S
Zr891       O899   2.385       .  S
Zr892       O911   2.436       .  S
Zr892       O904   2.434       .  S
Zr892       O905   2.422       .  S
Zr892       O898   2.402       .  S
Zr892       O899   2.403       .  S
Zr893       O895   2.436       .  S
Zr893       O917   2.439       .  S
Zr893       O919   2.417       .  S
Zr893       O897   2.388       .  S
Zr893       O900   2.398       .  S
Zr894       O920   2.437   1_545  S
Zr894       O897   2.382   1_545  S
O895        H932   0.990       .  S
O896        H927   0.990       .  S
O896        H941   0.990       .  S
O898        H924   0.963       .  S
O900       Zr909   2.380       .  S
O900        H925   0.966       .  S
C901        C977   1.436       .  S
C902        C998   1.438       .  S
C903       C1008   1.438       .  S
O904        H940   0.990       .  S
O905        C907   1.281       .  A
O906        C907   1.290       .  A
C907        C950   1.438       .  S
O908       Zr909   2.439       .  S
O908        H937   0.990       .  S
Zr909       O912   2.438       .  S
Zr909       O913   2.440       .  S
Zr909       O914   2.407       .  S
O910        C915   1.286       .  A
O911        H928   0.990       .  S
O911        H943   0.990       .  S
O912        H929   0.990       .  S
O913        H933   0.990       .  S
O913        H942   0.990       .  S
C915        C954   1.439       .  S
O916        H935   0.990       .  S
O916        H939   0.990       .  S
O917        H931   0.990       .  S
O917        H938   0.990       .  S
O919        C922   1.280       .  A
O920        H930   0.990       .  S
O921        H934   0.991       .  S
C922        C965   1.435       .  S
C945        C946   1.207       .  T
C947        C948   1.207       .  T
C949        C950   1.209       .  T
C951        C952   1.202       .  T
C953        C954   1.209       .  T
C955        C956   1.204       .  T
C957        C958   1.208       .  T
C958       C2022   1.472       .  S
C959        C960   1.206       .  T
C961       C2022   1.460       .  S
C961        C962   1.201       .  T
C963        C964   1.209       .  T
C966       C2021   1.473   1_455  S
C967        C968   1.207       .  T
C969       C1012   1.518   1_554  S
C969        C970   1.347       .  D
C969        H971   1.088       .  S
C973        C974   1.203       .  T
C975       C1312   1.202       .  T
C976       C1311   1.203       .  T
C977        C978   1.208       .  T
C979       C1011   1.519   1_554  S
C979        C980   1.348       .  D
C979        H981   1.088       .  S
C980       C2022   1.518       .  S
C980        H982   1.089       .  S
C983        C984   1.209       .  T
C985       C1322   1.204       .  T
C986       C1321   1.203       .  T
C987        C988   1.202       .  T
C989        C990   1.355       .  D
C989        H991   1.088       .  S
C990        H992   1.088       .  S
C993        C994   1.209       .  T
C995        C996   1.209       .  T
C997        C998   1.209       .  T
C999       C1000   1.356       .  D
C999       H1001   1.088       .  S
C1000      H1002   1.088   1_565  S
C1003      C1004   1.209       .  T
C1005      C1006   1.208       .  T
C1007      C1008   1.208       .  T
C1009      C1335   1.529       .  S
C1009      C1339   1.473       .  S
C1009      C1342   1.471       .  S
C1009      C1343   1.472       .  S
C1010      C1325   1.528       .  S
C1010      C1330   1.473       .  S
C1010      C1332   1.471       .  S
C1010      C1333   1.472       .  S
C1011      C1320   1.471       .  S
C1011      C1322   1.467   1_556  S
C1011      C1323   1.462       .  S
C1012      C1309   1.460       .  S
C1012      C1312   1.464   1_556  S
C1012      C1314   1.470       .  S
C1013      C1299   1.472       .  S
C1013      C2646   1.471       .  S
C1013      C1303   1.471       .  S
C1014      C2660   1.521       .  S
C1014      C2638   1.473       .  S
C1014      C1296   1.468   1_655  S
C1014      C2641   1.462       .  S
C1015      C1288   1.460       .  S
C1015      C1289   1.473       .  S
C1015      C1292   1.467       .  S
C1016      C1326   1.528       .  S
C1016      C1281   1.472       .  S
C1016      C1283   1.468       .  S
C1016      C1285   1.472       .  S
Zr1017     O1018   2.444       .  S
Zr1017     O1019   2.440       .  S
Zr1017     O1020   2.450       .  S
Zr1017     O1023   2.418       .  S
Zr1017     O1025   2.380       .  S
Zr1017     O1027   2.404       .  S
O1018      H1074   0.990       .  S
O1018      H1082   0.991       .  S
O1019      C1039   1.283       .  A
O1020      C1041   1.285       .  A
O1021     Zr1031   2.433       .  S
O1021      C1040   1.283       .  A
O1022     Zr2374   2.435       .  S
O1022      C1041   1.282       .  A
O1024     Zr1032   2.402       .  S
O1025     Zr2374   2.402       .  S
O1026     Zr1031   2.395       .  S
O1026     Zr1032   2.377       .  S
O1026      H1061   0.965       .  S
O1027     Zr2374   2.404       .  S
O1028     Zr1031   2.392       .  S
Zr1029     O2398   2.443       .  S
Zr1029     O1716   2.431       .  S
Zr1029     O1035   2.396   1_545  S
Zr1029     O2380   2.409   1_545  S
Zr1030     O1042   2.436       .  S
Zr1030     O2366   2.431   1_455  S
Zr1030     O1043   2.429       .  S
Zr1030     O2369   2.400   1_455  S
Zr1030     O2371   2.405   1_455  S
Zr1030     O1373   2.394   1_466  S
Zr1031     O1055   2.439       .  S
Zr1031     O1057   2.434       .  S
Zr1031     O1035   2.391       .  S
Zr1032     O1058   2.435       .  S
Zr1032     O2403   2.435       .  S
Zr1032     O2378   2.437       .  S
Zr1032     O1035   2.388       .  S
Zr1032     O2380   2.384       .  S
O1033      H1070   0.990       .  S
O1034     Zr2376   2.436   1_455  S
O1034      H1065   0.990       .  S
O1036     Zr2373   2.409   1_465  S
O1036     Zr2376   2.385   1_455  S
O1036      H1062   0.965       .  S
O1037     Zr1366   2.391       .  S
O1037     Zr1047   2.384       .  S
O1038     Zr1047   2.390       .  S
O1038      H1063   0.966       .  S
C1039      C1324   1.426       .  S
C1040      C1311   1.428       .  S
C1041      C1341   1.438       .  S
O1042      H1078   0.990       .  S
O1044     Zr1701   2.428   1_455  S
O1046      H1075   0.990       .  S
Zr1047     O1051   2.441       .  S
Zr1047     O1052   2.399       .  S
O1048      C1053   1.281       .  A
O1049      H1066   0.990       .  S
O1049      H2425   0.990       .  S
O1050      H1067   0.990       .  S
O1051      H1071   0.990       .  S
O1051      H1080   0.989       .  S
O1052      C1053   1.276       .  A
C1053      C1298   1.424       .  S
O1054     Zr2373   2.443   1_455  S
O1054      H1073   0.991       .  S
O1054      H1077   0.990       .  S
O1055      H1069   0.990       .  S
O1055      H1076   0.990       .  S
O1056      C1060   1.283       .  A
O1058      H1068   0.990       .  S
O1059     Zr2376   2.435   1_455  S
O1059      H1072   0.990       .  S
C1060      C1304   1.437       .  S
H1081      O2393   0.990       .  S
Zr1083     O1084   2.442       .  S
Zr1083     O1085   2.461       .  S
Zr1083     O1086   2.457       .  S
Zr1083     O1089   2.455       .  S
Zr1083     O1091   2.383       .  S
Zr1083     O1092   2.386       .  S
Zr1083     O1093   2.417       .  S
Zr1083     O1094   2.402       .  S
O1084      H1140   0.990       .  S
O1084      H1148   0.991       .  S
O1085      C1105   1.287       .  A
O1086      C1107   1.286       .  A
O1087     Zr2441   2.420       .  S
O1087      C1106   1.281       .  A
O1088     Zr1096   2.424       .  S
O1088      C1107   1.281       .  A
O1089      C1106   1.287       .  A
O1090     Zr1098   2.400       .  S
O1090      C1105   1.275       .  A
O1091     Zr1096   2.401       .  S
O1091     Zr1098   2.387       .  S
O1092     Zr2441   2.400       .  S
O1092     Zr1098   2.378       .  S
O1092      H1127   0.966       .  S
O1093     Zr1096   2.400       .  S
O1093     Zr1113   2.386       .  S
O1093      H1130   0.964       .  S
O1094     Zr2441   2.384       .  S
O1094     Zr1113   2.385       .  S
Zr1095     O1120   2.442       .  S
Zr1095     O1114   2.462       .  S
Zr1095     O1122   2.458       .  S
Zr1095     O2454   2.468   1_455  S
Zr1095     O1101   2.402       .  S
Zr1095     O2446   2.416   1_455  S
Zr1095     O2447   2.384   1_455  S
Zr1095     O2448   2.385   1_455  S
Zr1096     O1115   2.436       .  S
Zr1096     O1108   2.435       .  S
Zr1096     O1109   2.418       .  S
Zr1096     O1102   2.402       .  S
Zr1096     O1103   2.400       .  S
Zr1097     O1099   2.436       .  S
Zr1097     O1121   2.439       .  S
Zr1097     O2431   2.418   1_455  S
Zr1097     O1123   2.416       .  S
Zr1097     O2436   2.399   1_455  S
Zr1097     O2438   2.388   1_455  S
Zr1097     O1101   2.387       .  S
Zr1097     O2448   2.394   1_455  S
Zr1098     O2468   2.436       .  S
Zr1098     O2469   2.435       .  S
Zr1098     O1100   2.437       .  S
Zr1098     O2445   2.383       .  S
Zr1098     O1102   2.380       .  S
O1099      H1136   0.990       .  S
O1100      H1131   0.990       .  S
O1100      H1145   0.990       .  S
O1101     Zr2442   2.384   1_455  S
O1102     Zr2439   2.416       .  S
O1102      H1128   0.964       .  S
O1103     Zr2439   2.385       .  S
O1103     Zr1113   2.387       .  S
O1104     Zr2439   2.386       .  S
O1104     Zr2441   2.393       .  S
O1104     Zr1113   2.382       .  S
O1104      H2473   0.966       .  S
C1105      C1319   1.438       .  S
C1106      C1340   1.438       .  S
C1107      C1329   1.436       .  S
O1108      H1144   0.990       .  S
O1109      C1111   1.280       .  A
O1110     Zr2439   2.469       .  S
O1110      C1111   1.289       .  A
C1111      C1300   1.437       .  S
O1112     Zr1113   2.440       .  S
O1112      H1141   0.990       .  S
Zr1113     O1116   2.438       .  S
Zr1113     O1117   2.440       .  S
Zr1113     O1118   2.405       .  S
O1114      C2463   1.287   1_455  A
O1115      H1132   0.990       .  S
O1115      H1147   0.990       .  S
O1116      H1133   0.990       .  S
O1117      H1137   0.990       .  S
O1117      H1146   0.990       .  S
O1118      C1119   1.277       .  A
C1119      O2458   1.288       .  A
C1119      C1293   1.439       .  S
O1120      H1139   0.990       .  S
O1120      H1143   0.990       .  S
O1121      H1135   0.990       .  S
O1121      H1142   0.990       .  S
O1122      C1126   1.288       .  A
O1123      C1126   1.280       .  A
O1124     Zr2442   2.435   1_455  S
O1124      H1134   0.990       .  S
O1125     Zr2442   2.436   1_455  S
O1125      H1138   0.990       .  S
C1126      C1282   1.437       .  S
H1129      O2448   0.966   1_455  S
Zr1149     O1150   2.446       .  S
Zr1149     O1151   2.438       .  S
Zr1149     O1152   2.448       .  S
Zr1149     O1155   2.415       .  S
Zr1149     O1157   2.383       .  S
Zr1149     O1159   2.402       .  S
O1150      H1206   0.991       .  S
O1150      H1214   0.991       .  S
O1151      C1171   1.283       .  A
O1152      C1173   1.284       .  A
O1153     Zr1163   2.433       .  S
O1153      C1172   1.283       .  A
O1154     Zr1162   2.434       .  S
O1154      C1173   1.282       .  A
O1156     Zr1164   2.406       .  S
O1157     Zr1162   2.404       .  S
O1158     Zr1163   2.392       .  S
O1158     Zr1164   2.377       .  S
O1158      H1193   0.965       .  S
O1159     Zr1162   2.406       .  S
O1159      H1196   0.964       .  S
O1160     Zr1163   2.392       .  S
O1160     Zr1179   2.387       .  S
Zr1161     O1186   2.442       .  S
Zr1161     O1180   2.432       .  S
Zr1161     O1188   2.432       .  S
Zr1161     O1176   2.428       .  S
Zr1161     O1167   2.395       .  S
Zr1161     O1168   2.409       .  S
Zr1161     O1169   2.375       .  S
Zr1161     O1170   2.383       .  S
Zr1162     O1181   2.438       .  S
Zr1162     O1174   2.434       .  S
Zr1162     O1175   2.439       .  S
Zr1163     O1165   2.435       .  S
Zr1163     O1187   2.440       .  S
Zr1163     O1189   2.430       .  S
Zr1163     O1167   2.388       .  S
Zr1163     O1170   2.397       .  S
Zr1164     O1190   2.437       .  S
Zr1164     O1191   2.436       .  S
Zr1164     O1166   2.436       .  S
Zr1164     O1167   2.384       .  S
Zr1164     O1168   2.385       .  S
O1165      H1202   0.990       .  S
O1166      H1197   0.990       .  S
O1168      H1194   0.965       .  S
O1169     Zr1179   2.381       .  S
O1170     Zr1179   2.384       .  S
O1170      H1195   0.966       .  S
C1171      C1310   1.425       .  S
C1172      C1321   1.427       .  S
C1173      C1331   1.438       .  S
O1174      H1210   0.990       .  S
O1176      C1177   1.280       .  A
C1177      C1295   1.432       .  S
O1178      H1207   0.990       .  S
Zr1179     O1183   2.440       .  S
Zr1179     O1184   2.399       .  S
O1180      C1185   1.280       .  A
O1181      H1198   0.990       .  S
O1181      H1213   0.990       .  S
O1182      H1199   0.990       .  S
O1183      H1203   0.990       .  S
O1183      H1212   0.990       .  S
O1184      C1185   1.275       .  A
C1185      C1287   1.424       .  S
O1186      H1205   0.991       .  S
O1186      H1209   0.990       .  S
O1187      H1201   0.990       .  S
O1187      H1208   0.990       .  S
O1188      C1192   1.282       .  A
O1189      C1192   1.282       .  A
O1190      H1200   0.990       .  S
O1191      H1204   0.990       .  S
C1192      C1284   1.434       .  S
Zr1215     O1216   2.443       .  S
Zr1215     O1217   2.460       .  S
Zr1215     O1218   2.454       .  S
Zr1215     O1221   2.449       .  S
Zr1215     O1223   2.381       .  S
Zr1215     O1224   2.387       .  S
Zr1215     O1225   2.415       .  S
Zr1215     O1226   2.402       .  S
O1216      H1272   0.990       .  S
O1216      H1280   0.991       .  S
O1217      C1237   1.287       .  A
O1218      C1239   1.286       .  A
O1219     Zr1229   2.427       .  S
O1219      C1238   1.282       .  A
O1220      C1239   1.281       .  A
O1221      C1238   1.286       .  A
O1222     Zr1230   2.397   1_565  S
O1222      C1237   1.274       .  A
O1223     Zr1230   2.385   1_565  S
O1224     Zr1229   2.398       .  S
O1224     Zr1230   2.379   1_565  S
O1224      H1259   0.966       .  S
O1225     Zr1245   2.387       .  S
O1225      H1262   0.964       .  S
O1226     Zr1229   2.385       .  S
O1226     Zr1245   2.385       .  S
Zr1227     O1252   2.443       .  S
Zr1227     O1246   2.464       .  S
Zr1227     O1254   2.457       .  S
Zr1227     O1242   2.466       .  S
Zr1227     O1234   2.419       .  S
Zr1227     O1235   2.385       .  S
Zr1228     O1247   2.436       .  S
Zr1228     O1240   2.434       .  S
Zr1228     O1241   2.423       .  S
Zr1228     O1234   2.406       .  S
Zr1228     O1235   2.402       .  S
Zr1229     O1231   2.436       .  S
Zr1229     O1253   2.439       .  S
Zr1229     O1255   2.421       .  S
Zr1229     O1233   2.387       .  S
Zr1229     O1236   2.398       .  S
Zr1230     O1256   2.436   1_545  S
Zr1230     O1233   2.383   1_545  S
O1231      H1268   0.990       .  S
O1232      H1263   0.990       .  S
O1232      H1277   0.990       .  S
O1234      H1260   0.964       .  S
O1236     Zr1245   2.382       .  S
O1236      H1261   0.966       .  S
C1237      C1313   1.436       .  S
C1238      C1334   1.437       .  S
C1239      C1344   1.436       .  S
O1240      H1276   0.990       .  S
O1241      C1243   1.281       .  A
O1242      C1243   1.288       .  A
C1243      C1286   1.437       .  S
O1244     Zr1245   2.440       .  S
O1244      H1273   0.990       .  S
Zr1245     O1248   2.439       .  S
Zr1245     O1249   2.440       .  S
Zr1245     O1250   2.403       .  S
O1246      C1251   1.287       .  A
O1247      H1264   0.990       .  S
O1247      H1279   0.990       .  S
O1248      H1265   0.990       .  S
O1249      H1269   0.990       .  S
O1249      H1278   0.990       .  S
C1251      C1290   1.440       .  S
O1252      H1271   0.990       .  S
O1252      H1275   0.990       .  S
O1253      H1267   0.990       .  S
O1253      H1274   0.990       .  S
O1255      C1258   1.281       .  A
O1256      H1266   0.990       .  S
O1257      H1270   0.990       .  S
C1258      C1301   1.437       .  S
C1281      C1282   1.208       .  T
C1283      C1284   1.206       .  T
C1285      C1286   1.208       .  T
C1287      C1288   1.201       .  T
C1289      C1290   1.210       .  T
C1291      C1292   1.205       .  T
C1293      C1294   1.209       .  T
C1294      C2358   1.473       .  S
C1295      C1296   1.205       .  T
C1297      C2358   1.460       .  S
C1297      C1298   1.201       .  T
C1299      C1300   1.209       .  T
C1302      C2357   1.473   1_455  S
C1303      C1304   1.208       .  T
C1305      C1306   1.348       .  D
C1305      H1307   1.088       .  S
C1309      C1310   1.201       .  T
C1313      C1314   1.208       .  T
C1315      C1316   1.347       .  D
C1315      H1317   1.088       .  S
C1316      C2358   1.518       .  S
C1316      H1318   1.089       .  S
C1319      C1320   1.208       .  T
C1323      C1324   1.202       .  T
C1325      C1326   1.354       .  D
C1325      H1327   1.088       .  S
C1326      H1328   1.088       .  S
C1329      C1330   1.208       .  T
C1331      C1332   1.209       .  T
C1333      C1334   1.208       .  T
C1335      C1336   1.355       .  D
C1335      H1337   1.088       .  S
C1336      H1338   1.088   1_565  S
C1339      C1340   1.209       .  T
C1341      C1342   1.208       .  T
C1343      C1344   1.208       .  T
C1345      C1671   1.530       .  S
C1345      C1675   1.472       .  S
C1345      C1678   1.471       .  S
C1345      C1679   1.473       .  S
C1346      C1661   1.527       .  S
C1346      C1666   1.475       .  S
C1346      C1668   1.470       .  S
C1346      C1669   1.472       .  S
C1347      C1987   1.519       .  S
C1347      C1656   1.471       .  S
C1347      C1658   1.464       .  S
C1347      C1659   1.460       .  S
C1348      C1977   1.520       .  S
C1348      C1645   1.461       .  S
C1348      C1648   1.465       .  S
C1348      C1650   1.472       .  S
C1349      C2344   1.530   1_545  S
C1349      C1635   1.473       .  S
C1349      C1639   1.470       .  S
C1350      C1632   1.467       .  S
C1351      C2314   1.520   1_545  S
C1351      C1624   1.461       .  S
C1351      C1625   1.475       .  S
C1351      C1628   1.467       .  S
C1352      C1662   1.528       .  S
C1352      C1617   1.469       .  S
C1352      C1619   1.470       .  S
C1352      C1621   1.472       .  S
Zr1353     O1354   2.444       .  S
Zr1353     O1355   2.437       .  S
Zr1353     O1356   2.449       .  S
Zr1353     O1359   2.416       .  S
Zr1353     O1361   2.381       .  S
Zr1353     O1698   2.385       .  S
Zr1353     O1363   2.407       .  S
Zr1353     O1700   2.405       .  S
O1354      H1410   0.990       .  S
O1354      H1418   0.990       .  S
O1355      C1375   1.282       .  A
O1356      C1377   1.285       .  A
O1357     Zr1367   2.436       .  S
O1357      C1376   1.284       .  A
O1358      C1377   1.282       .  A
O1359      C1712   1.280       .  A
O1360     Zr1368   2.404       .  S
O1360      C1711   1.276   1_554  A
O1361     Zr1704   2.387       .  S
O1362     Zr1689   2.385   1_554  S
O1362     Zr1367   2.394       .  S
O1362     Zr1368   2.376       .  S
O1362      H1397   0.965       .  S
O1363     Zr2391   2.385       .  S
O1363      H2072   0.965       .  S
O1364     Zr1689   2.404   1_554  S
O1364     Zr1367   2.390       .  S
O1364     Zr2055   2.383   1_554  S
Zr1365     O2056   2.432       .  S
Zr1365     O2064   2.434       .  S
Zr1365     O1371   2.393       .  S
Zr1365     O2045   2.376       .  S
Zr1365     O2046   2.384       .  S
Zr1366     O2057   2.436       .  S
Zr1366     O1378   2.434       .  S
Zr1366     O1379   2.437       .  S
Zr1366     O1708   2.400       .  S
Zr1367     O2041   2.436       .  S
Zr1367     O1391   2.439       .  S
Zr1367     O1393   2.433       .  S
Zr1367     O1371   2.388       .  S
Zr1367     O2046   2.396       .  S
Zr1368     O1394   2.437       .  S
Zr1368     O1697   2.386   1_554  S
Zr1368     O1371   2.385       .  S
O1369     Zr2039   2.437   1_545  S
O1369      H1406   0.990       .  S
O1370      H1401   0.990       .  S
O1370      H1751   0.990   1_554  S
O1372     Zr1702   2.402   1_554  S
O1372      H1398   0.965       .  S
O1373     Zr2037   2.375       .  S
O1373     Zr1383   2.381   1_554  S
O1374     Zr2037   2.386       .  S
O1374     Zr2039   2.398   1_545  S
O1374     Zr1383   2.388   1_554  S
O1374      H1399   0.966       .  S
C1375      O1696   1.275       .  A
C1375      C1660   1.425       .  S
C1376      O1695   1.280   1_554  A
C1376      C1647   1.429       .  S
C1377      C1677   1.438       .  S
O1378      H1414   0.990       .  S
O1379      C1717   1.283       .  A
O1380      C2053   1.281       .  A
C1381      O1715   1.283   1_554  A
C1381      O2052   1.280       .  A
C1381      C2299   1.430       .  S
O1382     Zr1719   2.440       .  S
O1382      H1411   0.990       .  S
Zr1383     O1718   2.440       .  S
Zr1383     O1722   2.438       .  S
Zr1383     O1387   2.442   1_556  S
Zr1383     O1388   2.399   1_556  S
Zr1383     O2371   2.384   1_545  S
Zr1383     O2036   2.386   1_546  S
O1384     Zr2037   2.434       .  S
O1384      C1389   1.281       .  A
O1385     Zr2038   2.436   1_545  S
O1385      H1402   0.990       .  S
O1386     Zr1719   2.439       .  S
O1386      H1403   0.990       .  S
O1387      H1407   0.990       .  S
O1387      H1416   0.989       .  S
O1388      C1389   1.275       .  A
C1389      C1634   1.425       .  S
O1390      H1409   0.991       .  S
O1390      H1413   0.990       .  S
O1391      H1405   0.990       .  S
O1391      H1412   0.990       .  S
O1392     Zr2037   2.435       .  S
O1392      C1396   1.283   1_545  A
O1393      C2068   1.283       .  A
O1394      H1404   0.990       .  S
O1395      H1408   0.990       .  S
C1396      O2065   1.283       .  A
C1396      C1640   1.435       .  S
H1400      O2035   0.965   1_545  S
H1415      O1706   0.990       .  S
Zr1419     O1420   2.442       .  S
Zr1419     O1421   2.463       .  S
Zr1419     O1422   2.460       .  S
Zr1419     O1425   2.453       .  S
Zr1419     O1427   2.382       .  S
Zr1419     O1428   2.389       .  S
Zr1419     O1429   2.415       .  S
Zr1419     O1430   2.405       .  S
O1420      H1476   0.990       .  S
O1420      H1484   0.991       .  S
O1421      C1441   1.287       .  A
O1422      C1443   1.287       .  A
O1423      C1442   1.281       .  A
O1424     Zr1432   2.429       .  S
O1424      C1443   1.282       .  A
O1425      C1442   1.287       .  A
O1426     Zr1434   2.399       .  S
O1426      C1441   1.274       .  A
O1427     Zr1432   2.399       .  S
O1427     Zr1434   2.386       .  S
O1428     Zr1434   2.380       .  S
O1428      H1463   0.966       .  S
O1429     Zr1432   2.400       .  S
O1429     Zr1449   2.387       .  S
O1429      H1466   0.964       .  S
O1430     Zr1449   2.388       .  S
Zr1431     O1456   2.442       .  S
Zr1431     O1450   2.466       .  S
Zr1431     O1458   2.454       .  S
Zr1431     O1437   2.405       .  S
Zr1432     O1451   2.436       .  S
Zr1432     O1444   2.435       .  S
Zr1432     O1445   2.418       .  S
Zr1432     O1438   2.403       .  S
Zr1432     O1439   2.402       .  S
Zr1433     O1435   2.435       .  S
Zr1433     O1457   2.437       .  S
Zr1433     O1459   2.416       .  S
Zr1433     O1437   2.388       .  S
Zr1434     O1436   2.436       .  S
Zr1434     O1438   2.382       .  S
O1435      H1472   0.990       .  S
O1436      H1467   0.991       .  S
O1436      H1481   0.990       .  S
O1438      H1464   0.964       .  S
O1439     Zr1449   2.386       .  S
O1440     Zr1449   2.382       .  S
C1441      C1655   1.437       .  S
C1442      C1676   1.437       .  S
C1443      C1665   1.439       .  S
O1444      H1480   0.990       .  S
O1445      C1447   1.280       .  A
O1446      C1447   1.289       .  A
C1447      C1636   1.438       .  S
O1448     Zr1449   2.439       .  S
O1448      H1477   0.990       .  S
Zr1449     O1452   2.438       .  S
Zr1449     O1453   2.440       .  S
Zr1449     O1454   2.402       .  S
O1451      H1468   0.990       .  S
O1451      H1483   0.990       .  S
O1452      H1469   0.990       .  S
O1453      H1473   0.990       .  S
O1453      H1482   0.990       .  S
O1454      C1455   1.275       .  A
C1455      C1629   1.440       .  S
O1456      H1475   0.991       .  S
O1456      H1479   0.990       .  S
O1457      H1471   0.990       .  S
O1457      H1478   0.990       .  S
O1458      C1462   1.287       .  A
O1459      C1462   1.280       .  A
O1460      H1470   0.990       .  S
O1461      H1474   0.990       .  S
C1462      C1618   1.434       .  S
Zr1485     O1486   2.446       .  S
Zr1485     O1487   2.441       .  S
Zr1485     O1488   2.448       .  S
Zr1485     O1491   2.416       .  S
Zr1485     O1493   2.382       .  S
Zr1485     O1830   2.385       .  S
Zr1485     O1495   2.406       .  S
Zr1485     O1832   2.405       .  S
O1486      H1542   0.991       .  S
O1486      H1550   0.991       .  S
O1487      C1507   1.283       .  A
O1488      C1509   1.284       .  A
O1489     Zr1499   2.438       .  S
O1489      C1508   1.284       .  A
O1490     Zr1498   2.433       .  S
O1490      C1509   1.282       .  A
O1491      C1844   1.280       .  A
O1492     Zr1500   2.406       .  S
O1492      C1843   1.277   1_554  A
O1493     Zr1498   2.403       .  S
O1493     Zr1836   2.387       .  S
O1494     Zr1821   2.385   1_554  S
O1494     Zr1499   2.393       .  S
O1494     Zr1500   2.378       .  S
O1494      H1529   0.965       .  S
O1495     Zr1498   2.406       .  S
O1495     Zr1851   2.387       .  S
O1495      H1532   0.964       .  S
O1496     Zr1821   2.403   1_554  S
O1496     Zr1499   2.390       .  S
O1496     Zr1515   2.385   1_554  S
Zr1497     O1522   2.443       .  S
Zr1497     O1516   2.435       .  S
Zr1497     O1524   2.436       .  S
Zr1497     O1512   2.431       .  S
Zr1497     O1503   2.396       .  S
Zr1497     O1504   2.408       .  S
Zr1497     O1505   2.374       .  S
Zr1497     O1506   2.385       .  S
Zr1498     O1517   2.435       .  S
Zr1498     O1510   2.435       .  S
Zr1498     O1511   2.436       .  S
Zr1498     O1840   2.403       .  S
Zr1498     O1841   2.392       .  S
Zr1499     O1501   2.436       .  S
Zr1499     O1523   2.441       .  S
Zr1499     O1525   2.432       .  S
Zr1499     O1503   2.391       .  S
Zr1499     O1506   2.400       .  S
Zr1500     O1526   2.436       .  S
Zr1500     O1527   2.435       .  S
Zr1500     O1502   2.436       .  S
Zr1500     O1829   2.386   1_554  S
Zr1500     O1503   2.385       .  S
Zr1500     O1504   2.383       .  S
O1501      H1538   0.990       .  S
O1502      H1533   0.990       .  S
O1502      H1883   0.990   1_554  S
O1504     Zr1834   2.403   1_554  S
O1504      H1530   0.965       .  S
O1505     Zr1834   2.393   1_554  S
O1505     Zr1515   2.380   1_554  S
O1506     Zr1515   2.385   1_554  S
O1506      H1531   0.966       .  S
C1507      O1828   1.276       .  A
C1507      C1646   1.427       .  S
C1508      O1827   1.280   1_554  A
C1508      C1657   1.430       .  S
C1509      C1667   1.437       .  S
O1510      H1546   0.990       .  S
O1511      C1849   1.283       .  A
O1512      C1513   1.281       .  A
C1513      O1847   1.284   1_554  A
C1513      C1631   1.432       .  S
O1514     Zr1851   2.441       .  S
O1514      H1543   0.990       .  S
Zr1515     O1850   2.439       .  S
Zr1515     O1854   2.439       .  S
Zr1515     O1519   2.440   1_556  S
Zr1515     O1520   2.401   1_556  S
Zr1515     O1831   2.384       .  S
O1516      C1521   1.281       .  A
O1517      H1534   0.990       .  S
O1517      H1549   0.990       .  S
O1518     Zr1851   2.439       .  S
O1518      H1535   0.990       .  S
O1519      H1539   0.990       .  S
O1519      H1548   0.990       .  S
O1520      C1521   1.276       .  A
C1521      C1623   1.426       .  S
O1522      H1541   0.990       .  S
O1522      H1545   0.990       .  S
O1523      H1537   0.990       .  S
O1523      H1544   0.990       .  S
O1524      C1528   1.284       .  A
O1525      C1528   1.283       .  A
O1526      H1536   0.990       .  S
O1527      H1540   0.990       .  S
C1528      C1620   1.436       .  S
H1547      O1838   0.990       .  S
Zr1551     O1552   2.442       .  S
Zr1551     O1553   2.461       .  S
Zr1551     O1554   2.458       .  S
Zr1551     O1557   2.453       .  S
Zr1551     O1559   2.382       .  S
Zr1551     O1560   2.387       .  S
Zr1551     O1561   2.416       .  S
Zr1551     O1562   2.401       .  S
O1552      H1608   0.990       .  S
O1552      H1616   0.991       .  S
O1553      C1573   1.287       .  A
O1554      C1575   1.287       .  A
O1555     Zr1565   2.419       .  S
O1555      C1574   1.280       .  A
O1556     Zr2236   2.426       .  S
O1556      C1575   1.281       .  A
O1557      C1574   1.287       .  A
O1558     Zr1566   2.398       .  S
O1558      C1573   1.274       .  A
O1559     Zr2236   2.396       .  S
O1559     Zr1566   2.384       .  S
O1560     Zr1565   2.397       .  S
O1560     Zr1566   2.378       .  S
O1560      H1595   0.966       .  S
O1561     Zr2236   2.402       .  S
O1561     Zr1581   2.384       .  S
O1561      H1598   0.964       .  S
O1562     Zr1565   2.387       .  S
O1562     Zr1581   2.387       .  S
Zr1563     O1588   2.442       .  S
Zr1563     O1582   2.463       .  S
Zr1563     O1590   2.455       .  S
Zr1563     O1578   2.469       .  S
Zr1563     O2241   2.403   1_545  S
Zr1563     O1570   2.416       .  S
Zr1563     O1571   2.386       .  S
Zr1563     O2244   2.388   1_545  S
Zr1564     O1583   2.436       .  S
Zr1564     O1576   2.435       .  S
Zr1564     O2228   2.430   1_545  S
Zr1564     O1577   2.421       .  S
Zr1564     O2231   2.399   1_545  S
Zr1564     O2233   2.401   1_545  S
Zr1564     O1570   2.402       .  S
Zr1564     O1571   2.401       .  S
Zr1565     O1567   2.435       .  S
Zr1565     O1589   2.440       .  S
Zr1565     O1591   2.417       .  S
Zr1565     O1569   2.388       .  S
Zr1565     O1572   2.397       .  S
Zr1566     O1592   2.436       .  S
Zr1566     O2265   2.435       .  S
Zr1566     O2240   2.438       .  S
Zr1566     O1569   2.388       .  S
Zr1566     O2242   2.379       .  S
O1567      H1604   0.990       .  S
O1568     Zr2238   2.438       .  S
O1568      H1599   0.990       .  S
O1568      H1613   0.990       .  S
O1569     Zr2235   2.406       .  S
O1570     Zr2238   2.379       .  S
O1570      H1596   0.964       .  S
O1571     Zr2253   2.387   1_545  S
O1572     Zr2235   2.386       .  S
O1572     Zr1581   2.383       .  S
O1572      H1597   0.966       .  S
C1573      C1649   1.437       .  S
C1574      C1670   1.436       .  S
C1575      C1680   1.437       .  S
O1576      H1612   0.990       .  S
O1577      C1579   1.281       .  A
O1578      C1579   1.289       .  A
C1579      C1622   1.438       .  S
O1580     Zr1581   2.440       .  S
O1580      H1609   0.990       .  S
Zr1581     O1584   2.439       .  S
Zr1581     O1585   2.439       .  S
Zr1581     O1586   2.404       .  S
Zr1581     O2243   2.386       .  S
O1582      C1587   1.287   1_545  A
O1583      H1600   0.990       .  S
O1583      H1615   0.990       .  S
O1584      H1601   0.990       .  S
O1585      H1605   0.990       .  S
O1585      H1614   0.990       .  S
O1586      C2259   1.276       .  A
C1587      O2258   1.277       .  A
C1587      C1626   1.441   1_565  S
O1588      H1607   0.990       .  S
O1588      H1611   0.990       .  S
O1589      H1603   0.990       .  S
O1589      H1610   0.990       .  S
O1590      C2266   1.287   1_545  A
O1591      C1594   1.280       .  A
O1592      H1602   0.990       .  S
O1593     Zr2238   2.436       .  S
O1593      H1606   0.990       .  S
C1594      O2262   1.288       .  A
C1594      C1637   1.437       .  S
C1617      C1618   1.206       .  T
C1619      C1620   1.207       .  T
C1621      C1622   1.209       .  T
C1623      C1624   1.202       .  T
C1625      C1626   1.210       .  T
C1627      C2053   1.431       .  S
C1627      C1628   1.205       .  T
C1629      C1630   1.210       .  T
C1631      C1632   1.205       .  T
C1633      C1634   1.201       .  T
C1635      C1636   1.209       .  T
C1637      C2310   1.208       .  T
C1638      C2309   1.208   1_545  T
C1639      C1640   1.207   1_545  T
C1641      C1684   1.519   1_554  S
C1641      C1642   1.347       .  D
C1641      H1643   1.088       .  S
C1642      C2023   1.518       .  S
C1642      H2316   1.089       .  S
H1644      C2314   1.089   1_545  S
C1645      C1646   1.202       .  T
C1647      C1984   1.204       .  T
C1648      C1983   1.203       .  T
C1649      C1650   1.209       .  T
C1651      C1683   1.520   1_554  S
C1651      C1652   1.348       .  D
C1651      H1653   1.088       .  S
C1652      H1654   1.089       .  S
C1655      C1656   1.209       .  T
C1657      C1994   1.204       .  T
C1658      C1993   1.202       .  T
C1659      C1660   1.201       .  T
C1661      C1662   1.355       .  D
C1661      H1663   1.088       .  S
C1662      H1664   1.087       .  S
C1665      C1666   1.210       .  T
C1667      C1668   1.208       .  T
C1669      C1670   1.208       .  T
C1671      C1672   1.356       .  D
C1671      H1673   1.088       .  S
C1672      C2021   1.531       .  S
C1672      H1674   1.088       .  S
C1675      C1676   1.208       .  T
C1677      C1678   1.209       .  T
C1679      C1680   1.208       .  T
C1681      C2007   1.529       .  S
C1681      C2011   1.472       .  S
C1681      C2014   1.471       .  S
C1681      C2015   1.475       .  S
C1682      C1997   1.527       .  S
C1682      C2002   1.473       .  S
C1682      C2004   1.469       .  S
C1682      C2005   1.471       .  S
C1683      C1992   1.472       .  S
C1683      C1994   1.466   1_556  S
C1683      C1995   1.462       .  S
C1684      C1981   1.462       .  S
C1684      C1984   1.466   1_556  S
C1684      C1986   1.470       .  S
C1685      C2680   1.530   1_545  S
C1685      C1971   1.472       .  S
C1685      C1975   1.471       .  S
C1686      C1968   1.467       .  S
C1687      C2650   1.518   1_545  S
C1687      C1960   1.459       .  S
C1687      C1961   1.472       .  S
C1687      C1964   1.465       .  S
C1688      C1998   1.527       .  S
C1688      C1953   1.471       .  S
C1688      C1955   1.469       .  S
C1688      C1957   1.472       .  S
Zr1689     O1690   2.444       .  S
Zr1689     O1691   2.439       .  S
Zr1689     O1692   2.450       .  S
Zr1689     O1695   2.418       .  S
Zr1689     O1697   2.380       .  S
Zr1689     O1699   2.404       .  S
O1690      H1746   0.990       .  S
O1690      H1754   0.991       .  S
O1691      C1711   1.283       .  A
O1692      C1713   1.285       .  A
O1693     Zr1703   2.435       .  S
O1693      C1712   1.283       .  A
O1694      C1713   1.282       .  A
O1696     Zr1704   2.401       .  S
O1698     Zr1703   2.392       .  S
O1698     Zr1704   2.376       .  S
O1698      H1733   0.966       .  S
O1699     Zr2055   2.381       .  S
O1699      H2408   0.964       .  S
O1700     Zr1703   2.391       .  S
O1700     Zr2391   2.386       .  S
Zr1701     O2392   2.434       .  S
Zr1701     O2400   2.432       .  S
Zr1701     O1707   2.395       .  S
Zr1701     O2381   2.376       .  S
Zr1701     O2382   2.384       .  S
Zr1702     O2393   2.435       .  S
Zr1702     O1714   2.435       .  S
Zr1702     O1715   2.434       .  S
Zr1703     O2377   2.436       .  S
Zr1703     O1727   2.440       .  S
Zr1703     O1729   2.434       .  S
Zr1703     O1707   2.390       .  S
Zr1703     O2382   2.398       .  S
Zr1704     O1730   2.436       .  S
Zr1704     O1707   2.386       .  S
O1705     Zr2375   2.436   1_545  S
O1705      H1742   0.990       .  S
O1706      H1737   0.990       .  S
O1708      H1734   0.965       .  S
O1709     Zr2373   2.377       .  S
O1709     Zr1719   2.382       .  S
O1710     Zr2373   2.382       .  S
O1710     Zr2375   2.396   1_545  S
O1710     Zr1719   2.388       .  S
O1710      H1735   0.966       .  S
C1711      C1996   1.427       .  S
C1712      C1983   1.428       .  S
C1713      C2013   1.437       .  S
O1714      H1750   0.990       .  S
O1716      C2389   1.281       .  A
C1717      O2388   1.280       .  A
C1717      C2635   1.431       .  S
O1718      H1747   0.990       .  S
Zr1719     O1723   2.442       .  S
Zr1719     O1724   2.397       .  S
Zr1719     O2035   2.383   1_545  S
Zr1719     O2372   2.385   1_545  S
O1720     Zr2373   2.432       .  S
O1720      C1725   1.281       .  A
O1721     Zr2374   2.436   1_545  S
O1721      H1738   0.990       .  S
O1722      H1739   0.990       .  S
O1723      H1743   0.990       .  S
O1723      H1752   0.989       .  S
O1724      C1725   1.275       .  A
C1725      C1970   1.423       .  S
O1726      H1745   0.991       .  S
O1726      H1749   0.990       .  S
O1727      H1741   0.990       .  S
O1727      H1748   0.990       .  S
O1728     Zr2373   2.437       .  S
O1728      C1732   1.283   1_545  A
O1729      C2404   1.283       .  A
O1730      H1740   0.990       .  S
O1731      H1744   0.990       .  S
C1732      O2401   1.283       .  A
C1732      C1976   1.437       .  S
H1736      O2371   0.964   1_545  S
Zr1755     O1756   2.442       .  S
Zr1755     O1757   2.461       .  S
Zr1755     O1758   2.462       .  S
Zr1755     O1761   2.456       .  S
Zr1755     O1763   2.382       .  S
Zr1755     O1764   2.389       .  S
Zr1755     O1765   2.413       .  S
Zr1755     O1766   2.404       .  S
O1756      H1812   0.990       .  S
O1756      H1820   0.991       .  S
O1757      C1777   1.287       .  A
O1758      C1779   1.287       .  A
O1759      C1778   1.281       .  A
O1760     Zr1768   2.423       .  S
O1760      C1779   1.281       .  A
O1761      C1778   1.287       .  A
O1762     Zr1770   2.398       .  S
O1762      C1777   1.274       .  A
O1763     Zr1768   2.398       .  S
O1763     Zr1770   2.386       .  S
O1764     Zr1770   2.379       .  S
O1764      H1799   0.966       .  S
O1765     Zr1768   2.401       .  S
O1765     Zr1785   2.386       .  S
O1765      H1802   0.964       .  S
O1766     Zr1785   2.387       .  S
Zr1767     O1792   2.442       .  S
Zr1767     O1786   2.464       .  S
Zr1767     O1794   2.452       .  S
Zr1767     O1773   2.403       .  S
Zr1768     O1787   2.437       .  S
Zr1768     O1780   2.433       .  S
Zr1768     O1781   2.420       .  S
Zr1768     O1774   2.400       .  S
Zr1768     O1775   2.400       .  S
Zr1769     O1771   2.435       .  S
Zr1769     O1793   2.440       .  S
Zr1769     O1795   2.421       .  S
Zr1769     O1773   2.383       .  S
Zr1770     O1772   2.439       .  S
Zr1770     O1774   2.377       .  S
O1771      H1808   0.990       .  S
O1772      H1803   0.991       .  S
O1772      H1817   0.990       .  S
O1774      H1800   0.964       .  S
O1775     Zr1785   2.386       .  S
O1776     Zr1785   2.382       .  S
C1777      C1991   1.437       .  S
C1778      C2012   1.438       .  S
C1779      C2001   1.438       .  S
O1780      H1816   0.990       .  S
O1781      C1783   1.281       .  A
O1782      C1783   1.289       .  A
C1783      C1972   1.438       .  S
O1784     Zr1785   2.439       .  S
O1784      H1813   0.990       .  S
Zr1785     O1788   2.439       .  S
Zr1785     O1789   2.441       .  S
Zr1785     O1790   2.399       .  S
O1787      H1804   0.990       .  S
O1787      H1819   0.990       .  S
O1788      H1805   0.990       .  S
O1789      H1809   0.990       .  S
O1789      H1818   0.990       .  S
O1790      C1791   1.275       .  A
C1791      C1965   1.437       .  S
O1792      H1811   0.990       .  S
O1792      H1815   0.990       .  S
O1793      H1807   0.990       .  S
O1793      H1814   0.990       .  S
O1794      C1798   1.286       .  A
O1795      C1798   1.281       .  A
O1796      H1806   0.990       .  S
O1797      H1810   0.990       .  S
C1798      C1954   1.436       .  S
Zr1821     O1822   2.444       .  S
Zr1821     O1823   2.440       .  S
Zr1821     O1824   2.451       .  S
Zr1821     O1827   2.418       .  S
Zr1821     O1829   2.381       .  S
Zr1821     O1831   2.402       .  S
O1822      H1878   0.990       .  S
O1822      H1886   0.991       .  S
O1823      C1843   1.283       .  A
O1824      C1845   1.285       .  A
O1825     Zr1835   2.433       .  S
O1825      C1844   1.283       .  A
O1826     Zr1834   2.428       .  S
O1826      C1845   1.281       .  A
O1828     Zr1836   2.403       .  S
O1829     Zr1834   2.405       .  S
O1830     Zr1835   2.394       .  S
O1830     Zr1836   2.380       .  S
O1830      H1865   0.965       .  S
O1831     Zr1834   2.408       .  S
O1831      H1868   0.964       .  S
O1832     Zr1835   2.388       .  S
O1832     Zr1851   2.389       .  S
Zr1833     O1858   2.443       .  S
Zr1833     O1852   2.430       .  S
Zr1833     O1860   2.435       .  S
Zr1833     O1848   2.428       .  S
Zr1833     O1839   2.390       .  S
Zr1833     O1840   2.408       .  S
Zr1833     O1841   2.376       .  S
Zr1833     O1842   2.386       .  S
Zr1834     O1853   2.437       .  S
Zr1834     O1846   2.436       .  S
Zr1834     O1847   2.437       .  S
Zr1835     O1837   2.436       .  S
Zr1835     O1859   2.439       .  S
Zr1835     O1861   2.430       .  S
Zr1835     O1839   2.389       .  S
Zr1835     O1842   2.397       .  S
Zr1836     O1862   2.436       .  S
Zr1836     O1863   2.436       .  S
Zr1836     O1838   2.438       .  S
Zr1836     O1839   2.382       .  S
Zr1836     O1840   2.383       .  S
O1837      H1874   0.990       .  S
O1838      H1869   0.990       .  S
O1840      H1866   0.965       .  S
O1841     Zr1851   2.379       .  S
O1842     Zr1851   2.387       .  S
O1842      H1867   0.966       .  S
C1843      C1982   1.427       .  S
C1844      C1993   1.427       .  S
C1845      C2003   1.436       .  S
O1846      H1882   0.990       .  S
O1848      C1849   1.280       .  A
C1849      C1967   1.431       .  S
O1850      H1879   0.990       .  S
Zr1851     O1855   2.442       .  S
Zr1851     O1856   2.404       .  S
O1852      C1857   1.280       .  A
O1853      H1870   0.990       .  S
O1853      H1885   0.990       .  S
O1854      H1871   0.990       .  S
O1855      H1875   0.991       .  S
O1855      H1884   0.990       .  S
O1856      C1857   1.276       .  A
C1857      C1959   1.424       .  S
O1858      H1877   0.991       .  S
O1858      H1881   0.990       .  S
O1859      H1873   0.990       .  S
O1859      H1880   0.990       .  S
O1860      C1864   1.283       .  A
O1861      C1864   1.282       .  A
O1862      H1872   0.990       .  S
O1863      H1876   0.990       .  S
C1864      C1956   1.435       .  S
Zr1887     O1888   2.442       .  S
Zr1887     O1889   2.461       .  S
Zr1887     O1890   2.461       .  S
Zr1887     O1893   2.453       .  S
Zr1887     O1895   2.381       .  S
Zr1887     O1896   2.389       .  S
Zr1887     O1897   2.414       .  S
Zr1887     O1898   2.402       .  S
O1888      H1944   0.990       .  S
O1888      H1952   0.991       .  S
O1889      C1909   1.287       .  A
O1890      C1911   1.287       .  A
O1891     Zr1901   2.422       .  S
O1891      C1910   1.281       .  A
O1892     Zr2572   2.427       .  S
O1892      C1911   1.281       .  A
O1893      C1910   1.287       .  A
O1894     Zr1902   2.395       .  S
O1894      C1909   1.274       .  A
O1895     Zr2572   2.398       .  S
O1895     Zr1902   2.385       .  S
O1896     Zr1901   2.398       .  S
O1896     Zr1902   2.379       .  S
O1896      H1931   0.966       .  S
O1897     Zr2572   2.401       .  S
O1897     Zr1917   2.386       .  S
O1897      H1934   0.964       .  S
O1898     Zr1901   2.386       .  S
O1898     Zr1917   2.388       .  S
Zr1899     O1924   2.442       .  S
Zr1899     O1918   2.464       .  S
Zr1899     O1926   2.461       .  S
Zr1899     O1914   2.468       .  S
Zr1899     O2577   2.401   1_545  S
Zr1899     O1906   2.417       .  S
Zr1899     O1907   2.385       .  S
Zr1899     O2580   2.385   1_545  S
Zr1900     O1919   2.437       .  S
Zr1900     O1912   2.434       .  S
Zr1900     O2564   2.428   1_545  S
Zr1900     O1913   2.421       .  S
Zr1900     O2567   2.400   1_545  S
Zr1900     O2569   2.402   1_545  S
Zr1900     O1906   2.403       .  S
Zr1900     O1907   2.402       .  S
Zr1901     O1903   2.435       .  S
Zr1901     O1925   2.441       .  S
Zr1901     O1927   2.420       .  S
Zr1901     O1905   2.388       .  S
Zr1901     O1908   2.396       .  S
Zr1902     O1928   2.436       .  S
Zr1902     O2601   2.436       .  S
Zr1902     O2576   2.437       .  S
Zr1902     O1905   2.382       .  S
Zr1902     O2578   2.380       .  S
O1903      H1940   0.990       .  S
O1904     Zr2574   2.439       .  S
O1904      H1935   0.991       .  S
O1904      H1949   0.990       .  S
O1905     Zr2571   2.406       .  S
O1906     Zr2574   2.383       .  S
O1906      H1932   0.964       .  S
O1907     Zr2589   2.388   1_545  S
O1908     Zr2571   2.390       .  S
O1908     Zr1917   2.381       .  S
O1908      H1933   0.966       .  S
C1909      C1985   1.435       .  S
C1910      C2006   1.437       .  S
C1911      C2016   1.439       .  S
O1912      H1948   0.990       .  S
O1913      C1915   1.280       .  A
O1914      C1915   1.288       .  A
C1915      C1958   1.437       .  S
O1916     Zr1917   2.440       .  S
O1916      H1945   0.990       .  S
Zr1917     O1920   2.438       .  S
Zr1917     O1921   2.439       .  S
Zr1917     O1922   2.406       .  S
Zr1917     O2579   2.388       .  S
O1918      C1923   1.287   1_545  A
O1919      H1936   0.990       .  S
O1919      H1951   0.990       .  S
O1920      H1937   0.990       .  S
O1921      H1941   0.990       .  S
O1921      H1950   0.990       .  S
O1922      C2595   1.276       .  A
C1923      O2594   1.275       .  A
C1923      C1962   1.438   1_565  S
O1924      H1943   0.991       .  S
O1924      H1947   0.990       .  S
O1925      H1939   0.990       .  S
O1925      H1946   0.990       .  S
O1926      C2602   1.289   1_545  A
O1927      C1930   1.281       .  A
O1928      H1938   0.990       .  S
O1929     Zr2574   2.436       .  S
O1929      H1942   0.990       .  S
C1930      O2598   1.288       .  A
C1930      C1973   1.436       .  S
C1953      C1954   1.208       .  T
C1955      C1956   1.207       .  T
C1957      C1958   1.209       .  T
C1959      C1960   1.201       .  T
C1961      C1962   1.209       .  T
C1963      C2389   1.429       .  S
C1963      C1964   1.204       .  T
C1965      C1966   1.208       .  T
C1967      C1968   1.205       .  T
C1969      C1970   1.200       .  T
C1971      C1972   1.209       .  T
C1973      C2646   1.208       .  T
C1974      C2645   1.209   1_545  T
C1975      C1976   1.208   1_545  T
C1977      C1978   1.348       .  D
C1977      H1979   1.088       .  S
C1978      C2359   1.520       .  S
C1978      H2652   1.089       .  S
H1980      C2650   1.089   1_545  S
C1981      C1982   1.202       .  T
C1985      C1986   1.208       .  T
C1987      C1988   1.347       .  D
C1987      H1989   1.089       .  S
C1988      H1990   1.089       .  S
C1991      C1992   1.208       .  T
C1995      C1996   1.202       .  T
C1997      C1998   1.354       .  D
C1997      H1999   1.088       .  S
C1998      H2000   1.088       .  S
C2001      C2002   1.209       .  T
C2003      C2004   1.207       .  T
C2005      C2006   1.208       .  T
C2007      C2008   1.355       .  D
C2007      H2009   1.088       .  S
C2008      C2357   1.530       .  S
C2008      H2010   1.088       .  S
C2011      C2012   1.208       .  T
C2013      C2014   1.208       .  T
C2015      C2016   1.209       .  T
C2017      C2343   1.529       .  S
C2017      C2347   1.472       .  S
C2017      C2350   1.470       .  S
C2017      C2351   1.475       .  S
C2018      C2333   1.528       .  S
C2018      C2338   1.474       .  S
C2018      C2340   1.472       .  S
C2018      C2341   1.474       .  S
C2019      C2659   1.522       .  S
C2019      C2328   1.473       .  S
C2019      C2330   1.467       .  S
C2019      C2331   1.465       .  S
C2020      C2649   1.518       .  S
C2020      C2317   1.461       .  S
C2020      C2320   1.464       .  S
C2020      C2322   1.471       .  S
C2021      C2307   1.472       .  S
C2021      C2311   1.470       .  S
C2022      C2304   1.466       .  S
C2023      C2296   1.461       .  S
C2023      C2297   1.473       .  S
C2023      C2300   1.466       .  S
C2024      C2334   1.529       .  S
C2024      C2289   1.473       .  S
C2024      C2291   1.467       .  S
C2024      C2293   1.474       .  S
Zr2025     O2026   2.445       .  S
Zr2025     O2027   2.440       .  S
Zr2025     O2028   2.444       .  S
Zr2025     O2031   2.417       .  S
Zr2025     O2033   2.381       .  S
Zr2025     O2370   2.384       .  S
Zr2025     O2035   2.404       .  S
Zr2025     O2372   2.402       .  S
O2026      H2082   0.990       .  S
O2026      H2090   0.991       .  S
O2027      C2047   1.283       .  A
O2028      C2049   1.283       .  A
O2029     Zr2039   2.437       .  S
O2029      C2048   1.283       .  A
O2030      C2049   1.282       .  A
O2031      C2384   1.280       .  A
O2032     Zr2040   2.400       .  S
O2032      C2383   1.276   1_554  A
O2033     Zr2376   2.386       .  S
O2034     Zr2361   2.385   1_554  S
O2034     Zr2039   2.395       .  S
O2034     Zr2040   2.380       .  S
O2034      H2069   0.966       .  S
O2036     Zr2361   2.404   1_554  S
O2036     Zr2039   2.388       .  S
Zr2037     O2043   2.393   1_545  S
Zr2038     O2050   2.437       .  S
Zr2038     O2051   2.432       .  S
Zr2038     O2380   2.404       .  S
Zr2039     O2063   2.439       .  S
Zr2039     O2065   2.434       .  S
Zr2039     O2043   2.389       .  S
Zr2040     O2066   2.437       .  S
Zr2040     O2369   2.387   1_554  S
Zr2040     O2043   2.382       .  S
O2041      H2078   0.990       .  S
O2042      H2073   0.990       .  S
O2042      H2423   0.990   1_554  S
O2044     Zr2374   2.404   1_554  S
O2044      H2070   0.965       .  S
O2045     Zr2055   2.383   1_554  S
O2046     Zr2055   2.387   1_554  S
O2046      H2071   0.966       .  S
C2047      O2368   1.276       .  A
C2047      C2332   1.430       .  S
C2048      O2367   1.279   1_554  A
C2048      C2319   1.430       .  S
C2049      C2349   1.437       .  S
O2050      H2086   0.990       .  S
O2051      C2389   1.283   1_565  A
C2053      O2387   1.284   1_544  A
O2054     Zr2391   2.441       .  S
O2054      H2083   0.990       .  S
Zr2055     O2390   2.442       .  S
Zr2055     O2394   2.439       .  S
Zr2055     O2059   2.439   1_556  S
Zr2055     O2060   2.398   1_556  S
O2056      C2061   1.281       .  A
O2057      H2074   0.990       .  S
O2058     Zr2391   2.438       .  S
O2058      H2075   0.991       .  S
O2059      H2079   0.990       .  S
O2059      H2088   0.990       .  S
O2060      C2061   1.276       .  A
C2061      C2306   1.424       .  S
O2062      H2081   0.991       .  S
O2062      H2085   0.990       .  S
O2063      H2077   0.990       .  S
O2063      H2084   0.990       .  S
O2064      C2068   1.283       .  A
O2066      H2076   0.990       .  S
O2067      H2080   0.990       .  S
C2068      C2312   1.436       .  S
H2087      O2378   0.990       .  S
Zr2091     O2092   2.442       .  S
Zr2091     O2093   2.463       .  S
Zr2091     O2094   2.460       .  S
Zr2091     O2097   2.454       .  S
Zr2091     O2099   2.381       .  S
Zr2091     O2100   2.388       .  S
Zr2091     O2101   2.415       .  S
Zr2091     O2102   2.404       .  S
O2092      H2148   0.990       .  S
O2092      H2156   0.991       .  S
O2093      C2113   1.287       .  A
O2094      C2115   1.287       .  A
O2095      C2114   1.281       .  A
O2096     Zr2104   2.425       .  S
O2096      C2115   1.281       .  A
O2097      C2114   1.287       .  A
O2098     Zr2106   2.402       .  S
O2098      C2113   1.275       .  A
O2099     Zr2104   2.400       .  S
O2099     Zr2106   2.386       .  S
O2100     Zr2106   2.378       .  S
O2100      H2135   0.966       .  S
O2101     Zr2104   2.402       .  S
O2101     Zr2121   2.386       .  S
O2101      H2138   0.964       .  S
O2102     Zr2121   2.385       .  S
Zr2103     O2128   2.442       .  S
Zr2103     O2122   2.460       .  S
Zr2103     O2130   2.459       .  S
Zr2103     O2109   2.402       .  S
Zr2104     O2123   2.436       .  S
Zr2104     O2116   2.435       .  S
Zr2104     O2117   2.419       .  S
Zr2104     O2110   2.401       .  S
Zr2104     O2111   2.399       .  S
Zr2105     O2107   2.436       .  S
Zr2105     O2129   2.441       .  S
Zr2105     O2131   2.421       .  S
Zr2105     O2109   2.388       .  S
Zr2106     O2108   2.438       .  S
Zr2106     O2110   2.380       .  S
O2107      H2144   0.990       .  S
O2108      H2139   0.990       .  S
O2108      H2153   0.990       .  S
O2110      H2136   0.964       .  S
O2111     Zr2121   2.389       .  S
O2112     Zr2121   2.381       .  S
C2113      C2327   1.439       .  S
C2114      C2348   1.437       .  S
C2115      C2337   1.437       .  S
O2116      H2152   0.990       .  S
O2117      C2119   1.280       .  A
O2118      C2119   1.288       .  A
C2119      C2308   1.437       .  S
O2120     Zr2121   2.440       .  S
O2120      H2149   0.990       .  S
Zr2121     O2124   2.438       .  S
Zr2121     O2125   2.441       .  S
Zr2121     O2126   2.400       .  S
O2123      H2140   0.990       .  S
O2123      H2155   0.990       .  S
O2124      H2141   0.990       .  S
O2125      H2145   0.990       .  S
O2125      H2154   0.990       .  S
O2126      C2127   1.275       .  A
C2127      C2301   1.436       .  S
O2128      H2147   0.991       .  S
O2128      H2151   0.990       .  S
O2129      H2143   0.990       .  S
O2129      H2150   0.990       .  S
O2130      C2134   1.288       .  A
O2131      C2134   1.281       .  A
O2132      H2142   0.990       .  S
O2133      H2146   0.990       .  S
C2134      C2290   1.438       .  S
Zr2157     O2158   2.446       .  S
Zr2157     O2159   2.438       .  S
Zr2157     O2160   2.450       .  S
Zr2157     O2163   2.421       .  S
Zr2157     O2165   2.383       .  S
Zr2157     O2502   2.386       .  S
Zr2157     O2167   2.402       .  S
Zr2157     O2504   2.404       .  S
O2158      H2214   0.991       .  S
O2158      H2222   0.991       .  S
O2159      C2179   1.283       .  A
O2160      C2181   1.284       .  A
O2161     Zr2171   2.437       .  S
O2161      C2180   1.284       .  A
O2162     Zr2170   2.435       .  S
O2162      C2181   1.283       .  A
O2163      C2516   1.281       .  A
O2164     Zr2172   2.399       .  S
O2164      C2515   1.275   1_554  A
O2165     Zr2170   2.403       .  S
O2165     Zr2508   2.388       .  S
O2166     Zr2493   2.385   1_554  S
O2166     Zr2171   2.392       .  S
O2166     Zr2172   2.377       .  S
O2166      H2201   0.966       .  S
O2167     Zr2170   2.405       .  S
O2167     Zr2523   2.382       .  S
O2167      H2204   0.964       .  S
O2168     Zr2493   2.404   1_554  S
O2168     Zr2171   2.390       .  S
O2168     Zr2187   2.386   1_554  S
Zr2169     O2194   2.443       .  S
Zr2169     O2188   2.434       .  S
Zr2169     O2196   2.434       .  S
Zr2169     O2184   2.428       .  S
Zr2169     O2175   2.395       .  S
Zr2169     O2176   2.410       .  S
Zr2169     O2177   2.374       .  S
Zr2169     O2178   2.384       .  S
Zr2170     O2189   2.436       .  S
Zr2170     O2182   2.435       .  S
Zr2170     O2183   2.435       .  S
Zr2170     O2512   2.401       .  S
Zr2170     O2513   2.394       .  S
Zr2171     O2173   2.436       .  S
Zr2171     O2195   2.439       .  S
Zr2171     O2197   2.427       .  S
Zr2171     O2175   2.392       .  S
Zr2171     O2178   2.398       .  S
Zr2172     O2198   2.437       .  S
Zr2172     O2199   2.436       .  S
Zr2172     O2174   2.436       .  S
Zr2172     O2501   2.388   1_554  S
Zr2172     O2175   2.383       .  S
Zr2172     O2176   2.386       .  S
O2173      H2210   0.990       .  S
O2174      H2205   0.990       .  S
O2174      H2555   0.990   1_554  S
O2176     Zr2506   2.405   1_554  S
O2176      H2202   0.965       .  S
O2177     Zr2506   2.394   1_554  S
O2177     Zr2187   2.381   1_554  S
O2178     Zr2187   2.384   1_554  S
O2178      H2203   0.966       .  S
C2179      O2500   1.277       .  A
C2179      C2318   1.427       .  S
C2180      O2499   1.279   1_554  A
C2180      C2329   1.429       .  S
C2181      C2339   1.439       .  S
O2182      H2218   0.990       .  S
O2183      C2521   1.283       .  A
O2184      C2185   1.281       .  A
C2185      O2519   1.284   1_554  A
C2185      C2303   1.431       .  S
O2186     Zr2523   2.440       .  S
O2186      H2215   0.990       .  S
Zr2187     O2522   2.439       .  S
Zr2187     O2526   2.438       .  S
Zr2187     O2191   2.440   1_556  S
Zr2187     O2192   2.400   1_556  S
Zr2187     O2503   2.385       .  S
O2188      C2193   1.281       .  A
O2189      H2206   0.990       .  S
O2189      H2221   0.990       .  S
O2190     Zr2523   2.438       .  S
O2190      H2207   0.990       .  S
O2191      H2211   0.990       .  S
O2191      H2220   0.990       .  S
O2192      C2193   1.275       .  A
C2193      C2295   1.425       .  S
O2194      H2213   0.991       .  S
O2194      H2217   0.990       .  S
O2195      H2209   0.990       .  S
O2195      H2216   0.990       .  S
O2196      C2200   1.283       .  A
O2197      C2200   1.282       .  A
O2198      H2208   0.990       .  S
O2199      H2212   0.990       .  S
C2200      C2292   1.432       .  S
H2219      O2510   0.990       .  S
Zr2223     O2224   2.442       .  S
Zr2223     O2225   2.460       .  S
Zr2223     O2226   2.461       .  S
Zr2223     O2229   2.455       .  S
Zr2223     O2231   2.382       .  S
Zr2223     O2232   2.390       .  S
Zr2223     O2233   2.416       .  S
Zr2223     O2234   2.402       .  S
O2224      H2280   0.990       .  S
O2224      H2288   0.991       .  S
O2225      C2245   1.287       .  A
O2226      C2247   1.287       .  A
O2227     Zr2237   2.426       .  S
O2227      C2246   1.282       .  A
O2228      C2247   1.282       .  A
O2229      C2246   1.287       .  A
O2230     Zr2238   2.399   1_565  S
O2230      C2245   1.275       .  A
O2231     Zr2238   2.386   1_565  S
O2232     Zr2237   2.401       .  S
O2232     Zr2238   2.380   1_565  S
O2232      H2267   0.966       .  S
O2233     Zr2253   2.385       .  S
O2233      H2270   0.964       .  S
O2234     Zr2237   2.385       .  S
O2234     Zr2253   2.385       .  S
Zr2235     O2260   2.443       .  S
Zr2235     O2254   2.463       .  S
Zr2235     O2262   2.459       .  S
Zr2235     O2250   2.468       .  S
Zr2235     O2242   2.420       .  S
Zr2235     O2243   2.386       .  S
Zr2236     O2255   2.436       .  S
Zr2236     O2248   2.435       .  S
Zr2236     O2249   2.424       .  S
Zr2236     O2242   2.403       .  S
Zr2236     O2243   2.403       .  S
Zr2237     O2239   2.436       .  S
Zr2237     O2261   2.439       .  S
Zr2237     O2263   2.423       .  S
Zr2237     O2241   2.387       .  S
Zr2237     O2244   2.395       .  S
Zr2238     O2264   2.436   1_545  S
Zr2238     O2241   2.384   1_545  S
O2239      H2276   0.990       .  S
O2240      H2271   0.990       .  S
O2240      H2285   0.990       .  S
O2242      H2268   0.964       .  S
O2244     Zr2253   2.382       .  S
O2244      H2269   0.966       .  S
C2245      C2321   1.437       .  S
C2246      C2342   1.440       .  S
C2247      C2352   1.440       .  S
O2248      H2284   0.990       .  S
O2249      C2251   1.281       .  A
O2250      C2251   1.289       .  A
C2251      C2294   1.439       .  S
O2252     Zr2253   2.440       .  S
O2252      H2281   0.990       .  S
Zr2253     O2256   2.439       .  S
Zr2253     O2257   2.439       .  S
Zr2253     O2258   2.406       .  S
O2254      C2259   1.287       .  A
O2255      H2272   0.990       .  S
O2255      H2287   0.990       .  S
O2256      H2273   0.990       .  S
O2257      H2277   0.990       .  S
O2257      H2286   0.990       .  S
C2259      C2298   1.439       .  S
O2260      H2279   0.990       .  S
O2260      H2283   0.990       .  S
O2261      H2275   0.990       .  S
O2261      H2282   0.990       .  S
O2263      C2266   1.281       .  A
O2264      H2274   0.990       .  S
O2265      H2278   0.990       .  S
C2266      C2309   1.438       .  S
C2289      C2290   1.208       .  T
C2291      C2292   1.205       .  T
C2293      C2294   1.210       .  T
C2295      C2296   1.201       .  T
C2297      C2298   1.209       .  T
C2299      C2300   1.204       .  T
C2301      C2302   1.208       .  T
C2303      C2304   1.204       .  T
C2305      C2306   1.201       .  T
C2307      C2308   1.209       .  T
C2311      C2312   1.208       .  T
C2313      C2356   1.520   1_554  S
C2313      C2314   1.348       .  D
C2313      H2315   1.089       .  S
C2317      C2318   1.202       .  T
C2319      C2656   1.204       .  T
C2320      C2655   1.202       .  T
C2321      C2322   1.208       .  T
C2323      C2355   1.519   1_554  S
C2323      C2324   1.347       .  D
C2323      H2325   1.088       .  S
C2324      H2326   1.089       .  S
C2327      C2328   1.209       .  T
C2329      C2666   1.204       .  T
C2330      C2665   1.205       .  T
C2331      C2332   1.204       .  T
C2333      C2334   1.355       .  D
C2333      H2335   1.088       .  S
C2334      H2336   1.087       .  S
C2337      C2338   1.209       .  T
C2339      C2340   1.209       .  T
C2341      C2342   1.209       .  T
C2343      C2344   1.356       .  D
C2343      H2345   1.088       .  S
C2344      H2346   1.087   1_565  S
C2347      C2348   1.208       .  T
C2349      C2350   1.208       .  T
C2351      C2352   1.210       .  T
C2353      C2679   1.529       .  S
C2353      C2683   1.472       .  S
C2353      C2686   1.470       .  S
C2353      C2687   1.473       .  S
C2354      C2669   1.529       .  S
C2354      C2674   1.475       .  S
C2354      C2676   1.470       .  S
C2354      C2677   1.474       .  S
C2355      C2664   1.474       .  S
C2355      C2666   1.466   1_556  S
C2355      C2667   1.461       .  S
C2356      C2653   1.459       .  S
C2356      C2656   1.466   1_556  S
C2356      C2658   1.472       .  S
C2357      C2643   1.471       .  S
C2357      C2647   1.469       .  S
C2358      C2640   1.467       .  S
C2359      C2632   1.461       .  S
C2359      C2633   1.474       .  S
C2359      C2636   1.467       .  S
C2360      C2670   1.530       .  S
C2360      C2625   1.473       .  S
C2360      C2627   1.469       .  S
C2360      C2629   1.476       .  S
Zr2361     O2362   2.443       .  S
Zr2361     O2363   2.437       .  S
Zr2361     O2364   2.448       .  S
Zr2361     O2367   2.415       .  S
Zr2361     O2369   2.378       .  S
Zr2361     O2371   2.403       .  S
O2362      H2418   0.990       .  S
O2362      H2426   0.991       .  S
O2363      C2383   1.282       .  A
O2364      C2385   1.284       .  A
O2365     Zr2375   2.429       .  S
O2365      C2384   1.282       .  A
O2366      C2385   1.281       .  A
O2368     Zr2376   2.407       .  S
O2370     Zr2375   2.397       .  S
O2370     Zr2376   2.377       .  S
O2370      H2405   0.965       .  S
O2372     Zr2375   2.390       .  S
Zr2373     O2379   2.392   1_545  S
Zr2374     O2386   2.435       .  S
Zr2374     O2387   2.438       .  S
Zr2375     O2399   2.440       .  S
Zr2375     O2401   2.433       .  S
Zr2375     O2379   2.390       .  S
Zr2376     O2402   2.436       .  S
Zr2376     O2379   2.385       .  S
O2377      H2414   0.990       .  S
O2378      H2409   0.990       .  S
O2380      H2406   0.965       .  S
O2381     Zr2391   2.382       .  S
O2382     Zr2391   2.387       .  S
O2382      H2407   0.966       .  S
C2383      C2668   1.425       .  S
C2384      C2655   1.427       .  S
C2385      C2685   1.437       .  S
O2386      H2422   0.990       .  S
O2390      H2419   0.990       .  S
Zr2391     O2395   2.441       .  S
Zr2391     O2396   2.401       .  S
O2392      C2397   1.281       .  A
O2393      H2410   0.990       .  S
O2394      H2411   0.990       .  S
O2395      H2415   0.991       .  S
O2395      H2424   0.989       .  S
O2396      C2397   1.275       .  A
C2397      C2642   1.427       .  S
O2398      H2417   0.991       .  S
O2398      H2421   0.990       .  S
O2399      H2413   0.990       .  S
O2399      H2420   0.990       .  S
O2400      C2404   1.282       .  A
O2402      H2412   0.990       .  S
O2403      H2416   0.990       .  S
C2404      C2648   1.435       .  S
Zr2427     O2428   2.442       .  S
Zr2427     O2429   2.463       .  S
Zr2427     O2430   2.460       .  S
Zr2427     O2433   2.457       .  S
Zr2427     O2435   2.381       .  S
Zr2427     O2436   2.386       .  S
Zr2427     O2437   2.415       .  S
Zr2427     O2438   2.405       .  S
O2428      H2484   0.990       .  S
O2428      H2492   0.991       .  S
O2429      C2449   1.287       .  A
O2430      C2451   1.286       .  A
O2431      C2450   1.280       .  A
O2432     Zr2440   2.426       .  S
O2432      C2451   1.281       .  A
O2433      C2450   1.288       .  A
O2434     Zr2442   2.404       .  S
O2434      C2449   1.276       .  A
O2435     Zr2440   2.398       .  S
O2435     Zr2442   2.385       .  S
O2436     Zr2442   2.380       .  S
O2436      H2471   0.966       .  S
O2437     Zr2440   2.400       .  S
O2437     Zr2457   2.387       .  S
O2437      H2474   0.964       .  S
O2438     Zr2457   2.389       .  S
Zr2439     O2464   2.442       .  S
Zr2439     O2458   2.463       .  S
Zr2439     O2466   2.456       .  S
Zr2439     O2445   2.401       .  S
Zr2440     O2459   2.436       .  S
Zr2440     O2452   2.436       .  S
Zr2440     O2453   2.417       .  S
Zr2440     O2446   2.403       .  S
Zr2440     O2447   2.403       .  S
Zr2441     O2443   2.436       .  S
Zr2441     O2465   2.437       .  S
Zr2441     O2467   2.419       .  S
Zr2441     O2445   2.386       .  S
Zr2442     O2444   2.438       .  S
Zr2442     O2446   2.380       .  S
O2443      H2480   0.990       .  S
O2444      H2475   0.990       .  S
O2444      H2489   0.990       .  S
O2446      H2472   0.964       .  S
O2447     Zr2457   2.386       .  S
O2448     Zr2457   2.380       .  S
C2449      C2663   1.440       .  S
C2450      C2684   1.437       .  S
C2451      C2673   1.438       .  S
O2452      H2488   0.990       .  S
O2453      C2455   1.280       .  A
O2454      C2455   1.289       .  A
C2455      C2644   1.436       .  S
O2456     Zr2457   2.439       .  S
O2456      H2485   0.990       .  S
Zr2457     O2460   2.437       .  S
Zr2457     O2461   2.441       .  S
Zr2457     O2462   2.404       .  S
O2459      H2476   0.990       .  S
O2459      H2491   0.990       .  S
O2460      H2477   0.990       .  S
O2461      H2481   0.990       .  S
O2461      H2490   0.990       .  S
O2462      C2463   1.276       .  A
C2463      C2637   1.439       .  S
O2464      H2483   0.991       .  S
O2464      H2487   0.990       .  S
O2465      H2479   0.990       .  S
O2465      H2486   0.990       .  S
O2466      C2470   1.288       .  A
O2467      C2470   1.281       .  A
O2468      H2478   0.990       .  S
O2469      H2482   0.990       .  S
C2470      C2626   1.438       .  S
Zr2493     O2494   2.444       .  S
Zr2493     O2495   2.435       .  S
Zr2493     O2496   2.449       .  S
Zr2493     O2499   2.414       .  S
Zr2493     O2501   2.379       .  S
Zr2493     O2503   2.401       .  S
O2494      H2550   0.991       .  S
O2494      H2558   0.991       .  S
O2495      C2515   1.281       .  A
O2496      C2517   1.284       .  A
O2497     Zr2507   2.437       .  S
O2497      C2516   1.284       .  A
O2498     Zr2506   2.432       .  S
O2498      C2517   1.281       .  A
O2500     Zr2508   2.405       .  S
O2501     Zr2506   2.402       .  S
O2502     Zr2507   2.392       .  S
O2502     Zr2508   2.379       .  S
O2502      H2537   0.965       .  S
O2503     Zr2506   2.405       .  S
O2503      H2540   0.964       .  S
O2504     Zr2507   2.389       .  S
O2504     Zr2523   2.386       .  S
Zr2505     O2530   2.443       .  S
Zr2505     O2524   2.434       .  S
Zr2505     O2532   2.436       .  S
Zr2505     O2520   2.431       .  S
Zr2505     O2511   2.395       .  S
Zr2505     O2512   2.409       .  S
Zr2505     O2513   2.374       .  S
Zr2505     O2514   2.383       .  S
Zr2506     O2525   2.437       .  S
Zr2506     O2518   2.436       .  S
Zr2506     O2519   2.437       .  S
Zr2507     O2509   2.435       .  S
Zr2507     O2531   2.440       .  S
Zr2507     O2533   2.429       .  S
Zr2507     O2511   2.391       .  S
Zr2507     O2514   2.398       .  S
Zr2508     O2534   2.436       .  S
Zr2508     O2535   2.436       .  S
Zr2508     O2510   2.436       .  S
Zr2508     O2511   2.385       .  S
Zr2508     O2512   2.384       .  S
O2509      H2546   0.990       .  S
O2510      H2541   0.990       .  S
O2512      H2538   0.965       .  S
O2513     Zr2523   2.380       .  S
O2514     Zr2523   2.387       .  S
O2514      H2539   0.966       .  S
C2515      C2654   1.424       .  S
C2516      C2665   1.431       .  S
C2517      C2675   1.437       .  S
O2518      H2554   0.990       .  S
O2520      C2521   1.281       .  A
C2521      C2639   1.431       .  S
O2522      H2551   0.990       .  S
Zr2523     O2527   2.442       .  S
Zr2523     O2528   2.402       .  S
O2524      C2529   1.281       .  A
O2525      H2542   0.990       .  S
O2525      H2557   0.990       .  S
O2526      H2543   0.990       .  S
O2527      H2547   0.990       .  S
O2527      H2556   0.989       .  S
O2528      C2529   1.276       .  A
C2529      C2631   1.426       .  S
O2530      H2549   0.991       .  S
O2530      H2553   0.990       .  S
O2531      H2545   0.990       .  S
O2531      H2552   0.990       .  S
O2532      C2536   1.283       .  A
O2533      C2536   1.282       .  A
O2534      H2544   0.990       .  S
O2535      H2548   0.990       .  S
C2536      C2628   1.434       .  S
Zr2559     O2560   2.442       .  S
Zr2559     O2561   2.466       .  S
Zr2559     O2562   2.459       .  S
Zr2559     O2565   2.452       .  S
Zr2559     O2567   2.384       .  S
Zr2559     O2568   2.386       .  S
Zr2559     O2569   2.416       .  S
Zr2559     O2570   2.404       .  S
O2560      H2616   0.990       .  S
O2560      H2624   0.991       .  S
O2561      C2581   1.288       .  A
O2562      C2583   1.287       .  A
O2563     Zr2573   2.426       .  S
O2563      C2582   1.282       .  A
O2564      C2583   1.281       .  A
O2565      C2582   1.286       .  A
O2566     Zr2574   2.396   1_565  S
O2566      C2581   1.274       .  A
O2567     Zr2574   2.388   1_565  S
O2568     Zr2573   2.399       .  S
O2568     Zr2574   2.378   1_565  S
O2568      H2603   0.966       .  S
O2569     Zr2589   2.385       .  S
O2569      H2606   0.964       .  S
O2570     Zr2573   2.386       .  S
O2570     Zr2589   2.386       .  S
Zr2571     O2596   2.443       .  S
Zr2571     O2590   2.460       .  S
Zr2571     O2598   2.455       .  S
Zr2571     O2586   2.474       .  S
Zr2571     O2578   2.415       .  S
Zr2571     O2579   2.384       .  S
Zr2572     O2591   2.436       .  S
Zr2572     O2584   2.435       .  S
Zr2572     O2585   2.425       .  S
Zr2572     O2578   2.403       .  S
Zr2572     O2579   2.401       .  S
Zr2573     O2575   2.435       .  S
Zr2573     O2597   2.438       .  S
Zr2573     O2599   2.419       .  S
Zr2573     O2577   2.386       .  S
Zr2573     O2580   2.395       .  S
Zr2574     O2600   2.435   1_545  S
Zr2574     O2577   2.380   1_545  S
O2575      H2612   0.990       .  S
O2576      H2607   0.990       .  S
O2576      H2621   0.990       .  S
O2578      H2604   0.964       .  S
O2580     Zr2589   2.381       .  S
O2580      H2605   0.966       .  S
C2581      C2657   1.438       .  S
C2582      C2678   1.439       .  S
C2583      C2688   1.438       .  S
O2584      H2620   0.990       .  S
O2585      C2587   1.282       .  A
O2586      C2587   1.290       .  A
C2587      C2630   1.442       .  S
O2588     Zr2589   2.440       .  S
O2588      H2617   0.990       .  S
Zr2589     O2592   2.438       .  S
Zr2589     O2593   2.441       .  S
Zr2589     O2594   2.400       .  S
O2590      C2595   1.287       .  A
O2591      H2608   0.990       .  S
O2591      H2623   0.990       .  S
O2592      H2609   0.990       .  S
O2593      H2613   0.990       .  S
O2593      H2622   0.990       .  S
C2595      C2634   1.439       .  S
O2596      H2615   0.990       .  S
O2596      H2619   0.990       .  S
O2597      H2611   0.990       .  S
O2597      H2618   0.990       .  S
O2599      C2602   1.281       .  A
O2600      H2610   0.990       .  S
O2601      H2614   0.990       .  S
C2602      C2645   1.439       .  S
C2625      C2626   1.209       .  T
C2627      C2628   1.206       .  T
C2629      C2630   1.211       .  T
C2631      C2632   1.202       .  T
C2633      C2634   1.209       .  T
C2635      C2636   1.205       .  T
C2637      C2638   1.209       .  T
C2639      C2640   1.205       .  T
C2641      C2642   1.202       .  T
C2643      C2644   1.208       .  T
C2647      C2648   1.207       .  T
C2649      C2650   1.347       .  D
C2649      H2651   1.088       .  S
C2653      C2654   1.201       .  T
C2657      C2658   1.209       .  T
C2659      C2660   1.349       .  D
C2659      H2661   1.088       .  S
C2660      H2662   1.089       .  S
C2663      C2664   1.210       .  T
C2667      C2668   1.202       .  T
C2669      C2670   1.355       .  D
C2669      H2671   1.088       .  S
C2670      H2672   1.087       .  S
C2673      C2674   1.209       .  T
C2675      C2676   1.208       .  T
C2677      C2678   1.209       .  T
C2679      C2680   1.356       .  D
C2679      H2681   1.088       .  S
C2680      H2682   1.087   1_565  S
C2683      C2684   1.208       .  T
C2685      C2686   1.208       .  T
C2687      C2688   1.208       .  T
