geometry optimzed in LAMMPS
_audit_creation_date              2020-12-01 
_audit_creation_method            'lammps2cif' 
_symmetry_space_group_name_H-M    'P1' 
_symmetry_Int_Tables_number       1 
_symmetry_cell_setting            triclinic 
loop_ 
_symmetry_equiv_pos_as_xyz 
  x,y,z 
_cell_length_a                    22.41719567 
_cell_length_b                    23.679775563193342 
_cell_length_c                    22.985118645398508 
_cell_angle_alpha                 95.84570959614743 
_cell_angle_beta                  89.61276413528574 
_cell_angle_gamma                 89.63752285008317 
loop_ 
_atom_site_label 
_atom_site_type_symbol 
_atom_site_fract_x 
_atom_site_fract_y 
_atom_site_fract_z 
_atom_site_charge 
C1          C  0.18238712  0.20470426  0.16256710     0.88300
C2          C  0.21996266  0.16911036  0.20317577    -0.51900
C3          C  0.24951685  0.20162905  0.24721893     0.11200
C4          C  0.23830732  0.26527251  0.24660271     0.22200
C5          C  0.14100379  0.24187429  0.20501930    -0.52700
C6          C  0.17071783  0.27355165  0.24830340     0.11300
C7          C  0.22755605  0.24729697  0.14105713    -0.52200
C8          C  0.25638201  0.27870787  0.18550935     0.11900
H9          H  0.22377002  0.12318926  0.19672469     0.16400
H10         H  0.26176307  0.29179789  0.28200527     0.02100
H11         H  0.09314373  0.24554786  0.19930150     0.16700
H12         H  0.23455842  0.25318230  0.09528311     0.16500
C13         C  0.17139556  0.50273901  0.42977397     0.31800
C14         C  0.20093609  0.58559520  0.51264659     0.31800
C15         C  0.17991282  0.56072025  0.40843854    -0.04400
C16         C  0.12615971  0.51259349  0.48032394    -0.05200
C17         C  0.22993259  0.49148005  0.46160870    -0.05000
C18         C  0.19520961  0.60325337  0.45094907    -0.04400
C19         C  0.14170035  0.55662488  0.52404790    -0.05200
C20         C  0.24523674  0.53479202  0.50661374    -0.05100
C21         C  0.20013227  0.65268122  0.42437873    -0.30400
N22         N  0.18805033  0.64043997  0.36677396     0.16100
C23         C  0.17573393  0.58437231  0.35628250    -0.30400
H24         H  0.16424983  0.56270989  0.31410035     0.18000
C25         C  0.12629422  0.53770547  0.57715320    -0.29400
N26         N  0.10469412  0.48488925  0.56767586     0.14800
C27         C  0.10248998  0.46973817  0.50975740    -0.29400
C28         C  0.26456210  0.50591590  0.55291127    -0.29700
N29         N  0.26227696  0.44921968  0.53803151     0.15300
H30         H  0.26682340  0.52472830  0.59779236     0.17900
C31         C  0.24297448  0.44022132  0.48265951    -0.29700
H32         H  0.22575050  0.39971372  0.46401109     0.17900
H33         H  0.09286780  0.42711753  0.49059170     0.17900
H34         H  0.21118366  0.69431303  0.44525153     0.18000
H35         H  0.13887121  0.55746893  0.61984960     0.17900
C36         C  0.20077437  0.91231110  0.75736248     0.88300
C37         C  0.22886722  0.94500276  0.70811770    -0.51900
C38         C  0.27244619  0.91442685  0.67549114     0.11200
C39         C  0.28395018  0.85567597  0.69558122     0.22200
C40         C  0.17902261  0.85598830  0.72478963    -0.52700
C41         C  0.22300649  0.82665806  0.69258023     0.11300
C42         C  0.25410751  0.89537106  0.79307805    -0.52200
C43         C  0.29726565  0.86647573  0.76096490     0.11900
H44         H  0.21522382  0.98749978  0.69984294     0.16400
H45         H  0.31939866  0.83089109  0.67008268     0.02100
H46         H  0.13361990  0.84067170  0.72732331     0.16700
H47         H  0.25669743  0.90402798  0.84037746     0.16500
C48         C  0.47794537  0.15508521  0.43069036     0.31800
C49         C  0.58480743  0.13048386  0.47856990     0.31800
C50         C  0.47460221  0.11962178  0.48249331    -0.04400
C51         C  0.52228683  0.12240564  0.38987951    -0.05200
C52         C  0.51493469  0.20753048  0.45251901    -0.05000
C53         C  0.52968068  0.10685258  0.50672939    -0.04400
C54         C  0.57768041  0.10840120  0.41278144    -0.05200
C55         C  0.57039177  0.19450220  0.47866542    -0.05100
C56         C  0.51944014  0.09845336  0.56415304    -0.30400
N57         N  0.46087406  0.10598547  0.57577717     0.16100
C58         C  0.43330754  0.12035617  0.52719866    -0.30400
H59         H  0.38893818  0.13866469  0.52681762     0.18000
C60         C  0.61521311  0.09735925  0.36397602    -0.29400
N61         N  0.58412203  0.10627793  0.31468822     0.14800
C62         C  0.52912298  0.12430005  0.33138615    -0.29400
C63         C  0.61156825  0.23125661  0.45894421    -0.29700
N64         N  0.58666400  0.26115377  0.41860481     0.15300
H65         H  0.65926779  0.22327012  0.46012336     0.17900
C66         C  0.52773834  0.25000710  0.41719097    -0.29700
H67         H  0.49997866  0.25864864  0.38067803     0.17900
H68         H  0.49428886  0.13495074  0.30181295     0.17900
H69         H  0.55330407  0.09668797  0.59732130     0.18000
H70         H  0.66127446  0.08343344  0.36441573     0.17900
C71         C  0.84731111  0.23304263  0.12202831     0.88300
C72         C  0.81449879  0.27844992  0.08907931    -0.51900
C73         C  0.78386058  0.31819770  0.12589005     0.11200
C74         C  0.78928737  0.30946804  0.19018794     0.22200
C75         C  0.88684432  0.26784176  0.16737873    -0.52700
C76         C  0.85577692  0.30771493  0.20257454     0.11300
C77         C  0.79796579  0.20838435  0.15902591    -0.52200
C78         C  0.76810778  0.24915879  0.19432338     0.11900
H79         H  0.81403173  0.27789344  0.04179807     0.16400
H80         H  0.76445285  0.34170976  0.21982270     0.02100
H81         H  0.93437716  0.26053501  0.17212742     0.16700
H82         H  0.78823010  0.16347962  0.15823588     0.16500
C83         C  0.21385464  0.23159605  0.83246761     0.88300
C84         C  0.19318583  0.24859525  0.77251992    -0.51900
C85         C  0.23552980  0.27776182  0.74471599     0.11200
C86         C  0.29401559  0.28652834  0.77791706     0.22200
C87         C  0.27250120  0.19883094  0.81912069    -0.52700
C88         C  0.31367493  0.22737007  0.79084133     0.11300
C89         C  0.23344665  0.28886656  0.86658190    -0.52200
C90         C  0.27568527  0.31744950  0.83689291     0.11900
H91         H  0.14899154  0.23998148  0.75487021     0.16400
H92         H  0.32828131  0.30924907  0.75410192     0.02100
H93         H  0.27967687  0.15484869  0.82707507     0.16700
H94         H  0.21533217  0.30513451  0.90894052     0.16500
C95         C  0.83022034  0.57427411  0.52136772     0.31800
C96         C  0.85043000  0.48807646  0.43845781     0.31800
C97         C  0.83532013  0.59068009  0.45926983    -0.04400
C98         C  0.88744363  0.54027590  0.52988592    -0.05200
C99         C  0.78196600  0.52770238  0.51857906    -0.05000
C100        C  0.84564074  0.54625382  0.41685551    -0.04400
C101        C  0.89816854  0.49474594  0.48608398    -0.05200
C102        C  0.79255793  0.48197303  0.47408323    -0.05100
C103        C  0.86120903  0.56876867  0.36609602    -0.30400
N104        N  0.86015587  0.62593691  0.37708479     0.16100
C105        C  0.84484775  0.64015039  0.43385635    -0.30400
H106        H  0.84455477  0.68286780  0.45572850     0.18000
C107        C  0.92150869  0.45093924  0.51449567    -0.29400
N108        N  0.92389990  0.46718726  0.57223038     0.14800
C109        C  0.90500462  0.52129749  0.58214800    -0.29400
C110        C  0.77931661  0.43288460  0.49930246    -0.29700
N111        N  0.76513617  0.44556376  0.55621929     0.15300
H112        H  0.79555877  0.39131044  0.48191817     0.17900
C113        C  0.76367928  0.50253913  0.56755521    -0.29700
H114        H  0.76583439  0.52366467  0.61160131     0.17900
H115        H  0.89772876  0.54325380  0.62531263     0.17900
H116        H  0.87602284  0.54553023  0.32549933     0.18000
H117        H  0.92961105  0.40792377  0.49515177     0.17900
C118        C  0.87983467  0.89730220  0.13626172     0.88300
C119        C  0.83337033  0.86508960  0.09718698    -0.51900
C120        C  0.79661766  0.83205962  0.12628066     0.11200
C121        C  0.80916170  0.83347672  0.19182385     0.22200
C122        C  0.84264785  0.93036100  0.18661750    -0.52700
C123        C  0.80588863  0.89607867  0.21597137     0.11300
C124        C  0.91272990  0.85097512  0.16653609    -0.52200
C125        C  0.87523439  0.81794926  0.19537799     0.11900
H126        H  0.83055275  0.86743922  0.05030435     0.16400
H127        H  0.77931001  0.80569233  0.21504890     0.02100
H128        H  0.84633129  0.97573278  0.19855642     0.16700
H129        H  0.96084901  0.84536320  0.16602803     0.16500
C130        C  0.84683631  0.17352236  0.78297670     0.88300
C131        C  0.78940388  0.19929169  0.81329161    -0.51900
C132        C  0.75195694  0.22388840  0.77621621     0.11200
C133        C  0.77402674  0.22061531  0.71328497     0.22200
C134        C  0.82303215  0.13244249  0.73014419    -0.52700
C135        C  0.78447784  0.15801735  0.69376663     0.11300
C136        C  0.87422748  0.22365646  0.75397715    -0.52200
C137        C  0.83540680  0.24777429  0.71785328     0.11900
H138        H  0.78118752  0.20097751  0.86005596     0.16400
H139        H  0.74323390  0.24159849  0.68417539     0.02100
H140        H  0.83514504  0.08782484  0.72293861     0.16700
H141        H  0.91871679  0.23996772  0.76310711     0.16500
C142        C  0.48080432  0.92985901  0.46841896     0.31800
C143        C  0.59263471  0.91998704  0.42233988     0.31800
C144        C  0.49653770  0.87028904  0.43832345    -0.04400
C145        C  0.49292950  0.96839308  0.41898095    -0.05200
C146        C  0.53211339  0.94296919  0.51076268    -0.05000
C147        C  0.55506026  0.86537280  0.41325670    -0.04400
C148        C  0.55233088  0.96342250  0.39728644    -0.05200
C149        C  0.58936904  0.93773433  0.48747859    -0.05100
C150        C  0.54867976  0.83458189  0.35920295    -0.30400
N151        N  0.49070066  0.82293012  0.34934932     0.16100
C152        C  0.45947041  0.84143203  0.39796731    -0.30400
H153        H  0.41162939  0.84836692  0.39766579     0.18000
C154        C  0.55105452  0.97118361  0.33966650    -0.29400
N155        N  0.49503799  0.97971235  0.32304681     0.14800
C156        C  0.45836169  0.97783351  0.37006672    -0.29400
C157        C  0.62785970  0.93587577  0.53350066    -0.29700
N158        N  0.59510511  0.94146614  0.58353534     0.15300
H159        H  0.67485821  0.92512240  0.53061197     0.17900
C160        C  0.53679532  0.94522525  0.57038206    -0.29700
H161        H  0.50041400  0.94310470  0.60132970     0.17900
H162        H  0.41012433  0.97813598  0.36804933     0.17900
H163        H  0.58111129  0.83530179  0.32406103     0.18000
H164        H  0.58860182  0.96507790  0.30970236     0.17900
C165        C  0.22839896  0.86657229  0.07605310     0.88300
C166        C  0.28588390  0.89039413  0.10579166    -0.51900
C167        C  0.31646983  0.85090497  0.13351273     0.11200
C168        C  0.28803199  0.79239519  0.12971336     0.22200
C169        C  0.25019512  0.81307894  0.03545922    -0.52700
C170        C  0.28196070  0.77446435  0.06448699     0.11300
C171        C  0.19328022  0.84185577  0.12555351    -0.52200
C172        C  0.22477255  0.80317278  0.15311616     0.11900
H173        H  0.30013323  0.93415464  0.10633594     0.16400
H174        H  0.31333552  0.76131284  0.15337297     0.02100
H175        H  0.24218600  0.80716771  0.98872692     0.16700
H176        H  0.14784888  0.85429762  0.13796964     0.16500
C177        C  0.84378256  0.84957308  0.82726474     0.88300
C178        C  0.86345758  0.81548194  0.76921938    -0.51900
C179        C  0.82037362  0.77963683  0.74539272     0.11200
C180        C  0.76221424  0.78135746  0.78058255     0.22200
C181        C  0.78587010  0.87935811  0.81222370    -0.52700
C182        C  0.74379120  0.84380179  0.78810773     0.11300
C183        C  0.82366884  0.80353122  0.86691738    -0.52200
C184        C  0.78066863  0.76784076  0.84154498     0.11900
H185        H  0.90715109  0.81908912  0.74930089     0.16400
H186        H  0.72724726  0.75282277  0.76017495     0.02100
H187        H  0.77985475  0.92517955  0.81641242     0.16700
H188        H  0.84148859  0.79974835  0.91015960     0.16500
C189        C  0.56166770  0.50396912  0.10361558     0.31800
C190        C  0.46603612  0.55701705  0.06119692     0.31800
C191        C  0.57576514  0.55162177  0.06647943    -0.04400
C192        C  0.52020071  0.46639999  0.06582541    -0.05200
C193        C  0.51778516  0.52964962  0.15136038    -0.05000
C194        C  0.52731772  0.57954752  0.04540215    -0.04400
C195        C  0.47069817  0.49171167  0.04276062    -0.05200
C196        C  0.46782156  0.55845136  0.12875314    -0.05100
C197        C  0.54832940  0.63035292  0.02872343    -0.30400
N198        N  0.60796670  0.63250409  0.03827434     0.16100
C199        C  0.62495115  0.58506108  0.06190288    -0.30400
H200        H  0.66826047  0.57859948  0.08085032     0.18000
C201        C  0.43562826  0.44614628  0.01990624    -0.29400
N202        N  0.46266165  0.39606970  0.03066317     0.14800
C203        C  0.51168260  0.40946887  0.06243189    -0.29400
C204        C  0.41842914  0.54279942  0.15946646    -0.29700
N205        N  0.43372319  0.50303412  0.19456650     0.15300
H206        H  0.37326334  0.54707213  0.14376231     0.17900
C207        C  0.49370137  0.49732870  0.19275382    -0.29700
H208        H  0.51630950  0.46050229  0.20675793     0.17900
H209        H  0.54356644  0.37897508  0.07619130     0.17900
H210        H  0.52143997  0.66546877  0.01679780     0.18000
H211        H  0.39561531  0.44926588  0.99430891     0.17900
C212        C  0.58115148  0.57049216  0.86258664     0.31800
C213        C  0.47132095  0.52452092  0.85307948     0.31800
C214        C  0.57028371  0.53414206  0.80395599    -0.04400
C215        C  0.56799288  0.52790024  0.90753207    -0.05200
C216        C  0.52865763  0.61205406  0.86835658    -0.05000
C217        C  0.51239961  0.50920210  0.79925915    -0.04400
C218        C  0.50915469  0.50603588  0.90288400    -0.05200
C219        C  0.47252455  0.58856000  0.86338319    -0.05100
C220        C  0.52142804  0.45383129  0.77453857    -0.30400
N221        N  0.58019972  0.44354657  0.76597513     0.16100
C222        C  0.60973496  0.49217861  0.78125106    -0.30400
H223        H  0.65715354  0.49312276  0.79013340     0.18000
C224        C  0.51258579  0.45075424  0.91327067    -0.29400
N225        N  0.56889537  0.43583513  0.92279160     0.14800
C226        C  0.60396077  0.48169204  0.91938844    -0.29400
C227        C  0.43205276  0.63228234  0.86350197    -0.29700
N228        N  0.46280894  0.68157855  0.86846750     0.15300
H229        H  0.38453833  0.62851828  0.85603800     0.17900
C230        C  0.52182088  0.67003025  0.87122868    -0.29700
H231        H  0.55703516  0.70107946  0.87085756     0.17900
H232        H  0.65210094  0.47968362  0.91614410     0.17900
H233        H  0.48922297  0.42025058  0.77722872     0.18000
H234        H  0.47718082  0.42038167  0.90368763     0.17900
C235        C  0.19030625  0.91002239  0.04714768     0.44300
N236        N  0.11381235  0.94540701  0.00621030     0.03100
C237        C  0.10693934  0.20453251  0.87895686    -0.04700
H238        H  0.06584109  0.22763829  0.09508318     0.08600
C239        C  0.87027140  0.12888284  0.06377561    -0.05100
Co240      Co  0.14072511  0.05653218  0.95822088     0.74200
N241        N  0.08810583  0.15598601  0.03276881    -0.24300
Co242      Co  0.02108826  0.15256844  0.96490682     0.74100
C243        C  0.88330575  0.18874193  0.08356936     0.44400
N244        N  0.93481580  0.98250665  0.02756134     0.02800
N245        N  0.95333615  0.15332433  0.02610311     0.02900
N246        N  0.18368696  0.14308627  0.87912558    -0.45100
H247        H  0.24306725  0.99267659  0.04096855     0.08600
N248        N  0.13266832  0.11848358  0.03095390     0.03200
N249        N  0.95245910  0.13992665  0.89765557     0.02900
C250        C  0.88889261  0.14678773  0.82627820     0.44500
N251        N  0.97894411  0.94465692  0.02195907    -0.23700
C252        C  0.17227576  0.99602384  0.83511403    -0.04600
N253        N  0.13489128  0.89897033  0.02694324    -0.44800
N254        N  0.93715201  0.17161537  0.85492561    -0.45000
C255        C  0.15530461  0.94457799  0.79837552     0.44300
N256        N  0.13627212  0.12336064  0.90486886     0.03100
N257        N  0.96934795  0.93367355  0.89509091    -0.23700
N258        N  0.15184880  0.98785486  0.01059162    -0.24200
N259        N  0.92342285  0.96890124  0.90097436     0.02800
H260        H  0.97745508  0.84547877  0.86102275     0.08700
H261        H  0.83796099  0.06838983  0.85000865     0.08700
N262        N  0.09037678  0.15845538  0.90532673    -0.24300
N263        N  0.91595814  0.11077851  0.02773047    -0.23900
N264        N  0.10395346  0.95229695  0.88026418     0.03100
C265        C  0.14777350  0.17179601  0.11217051     0.44500
C266        C  0.97291814  0.91097304  0.06553000    -0.05100
N267        N  0.91575534  0.09632718  0.89953082    -0.23900
H268        H  0.82955066  0.10570095  0.06924218     0.08700
N269        N  0.16952895  0.12730493  0.07621812    -0.45100
H270        H  0.00000457  0.87385716  0.07048635     0.08700
C271        C  0.88910733  0.89288442  0.85248012     0.44400
C272        C  0.20145110  0.96981206  0.03697600    -0.04600
Co273      Co  0.04155848  0.94344500  0.95062576     0.73800
N274        N  0.89896029  0.97608719  0.07260906    -0.44800
C275        C  0.16949018  0.19443294  0.86188740     0.44600
N276        N  0.11310181  0.91936922  0.83029303    -0.44800
Co277      Co  0.92210012  0.03967873  0.96423070     0.73900
C278        C  0.87493111  0.09739378  0.85699728    -0.05100
C279        C  0.09447987  0.19157838  0.08206882    -0.04700
N280        N  0.13985083  0.99671687  0.88439978    -0.24200
N281        N  0.93541866  0.20017349  0.05803738    -0.45000
H282        H  0.08146786  0.24349835  0.87944358     0.08700
C283        C  0.95202220  0.88468313  0.86511678    -0.05100
Cl284      Cl  0.03137649  0.04810616  0.95959125    -0.48100
C285        C  0.92024406  0.93254004  0.10045765     0.44400
H286        H  0.20755599  0.02547131  0.82775002     0.08600
N287        N  0.87487899  0.94610263  0.87601665    -0.44800
C288        C  0.46931230  0.34716807  0.99106526    -0.16700
C289        C  0.50392728  0.31974806  0.95870075     0.07400
C290        C  0.55962012  0.33321426  0.93416006     0.09200
C291        C  0.58158722  0.37815882  0.92569808    -0.17600
C292        C  0.63886615  0.60105027  0.86887622    -0.16700
C293        C  0.67983320  0.63459532  0.87327856     0.07400
C294        C  0.72201611  0.67961245  0.87398176     0.09200
C295        C  0.75300109  0.72020960  0.86643705    -0.17600
C296        C  0.31164569  0.72193407  0.03929670    -0.16700
C297        C  0.34151017  0.67831322  0.03157008     0.07400
C298        C  0.37987663  0.62930349  0.03243265     0.09200
C299        C  0.41578758  0.59177629  0.04045266    -0.17600
C300        C  0.61544185  0.92798370  0.63750866    -0.16700
C301        C  0.63335130  0.91162260  0.68179268     0.07400
C302        C  0.66066648  0.88708652  0.72758533     0.09200
C303        C  0.69344934  0.86542931  0.75974600    -0.17600
C304        C  0.46575918  0.82665846  0.29418436    -0.16700
C305        C  0.44158409  0.83812019  0.25025937     0.07400
C306        C  0.40647555  0.85454176  0.20422382     0.09200
C307        C  0.36864311  0.86118049  0.16867973    -0.17600
C308        C  0.60625273  0.39011588  0.77112295    -0.16700
C309        C  0.63100541  0.34651884  0.78063092     0.07400
C310        C  0.66580549  0.29871186  0.79184108     0.09200
C311        C  0.70212347  0.26097395  0.79321949    -0.17600
C312        C  0.75237940  0.79586458  0.09701818    -0.16700
C313        C  0.71659550  0.76308166  0.07425953     0.07400
C314        C  0.67589975  0.72106515  0.05258466     0.09200
C315        C  0.64298322  0.68144094  0.04189973    -0.17600
C316        C  0.65288431  0.91710289  0.39324995    -0.16700
C317        C  0.69420414  0.91774851  0.35832925     0.07400
C318        C  0.73635319  0.91803837  0.31084962     0.09200
C319        C  0.76929328  0.91356548  0.26799835    -0.17600
C320        C  0.82728526  0.74158311  0.69241844    -0.16700
C321        C  0.82612789  0.70621131  0.65064895     0.07400
C322        C  0.82247386  0.66217823  0.60424597     0.09200
C323        C  0.82224010  0.62304557  0.56614191    -0.17600
C324        C  0.78364373  0.41016358  0.59819939    -0.16700
C325        C  0.80580372  0.37938128  0.63093565     0.07400
C326        C  0.83197393  0.33942872  0.66485668     0.09200
C327        C  0.84429170  0.29945930  0.69114619    -0.17600
C328        C  0.87729327  0.66387436  0.33728761    -0.16700
C329        C  0.88992232  0.69676340  0.30259118     0.07400
C330        C  0.89750776  0.73718655  0.26229437     0.09200
C331        C  0.89414261  0.77367214  0.22963624    -0.17600
C332        C  0.41154599  0.49658748  0.85075619    -0.16700
C333        C  0.37066902  0.46315520  0.85346437     0.07400
C334        C  0.33037655  0.41674233  0.85694217     0.09200
C335        C  0.30142590  0.37312815  0.85457280    -0.17600
C336        C  0.61577169  0.47221083  0.11895292    -0.16700
C337        C  0.65866911  0.44042689  0.11756843     0.07400
C338        C  0.70586197  0.39944901  0.11058933     0.09200
C339        C  0.74377198  0.36244190  0.10966121    -0.17600
C340        C  0.87936318  0.34224518  0.25221311    -0.16700
C341        C  0.88329696  0.37318298  0.29701261     0.07400
C342        C  0.87522286  0.41000152  0.34884708     0.09200
C343        C  0.86371871  0.44315339  0.39088920    -0.17600
C344        C  0.48572049  0.99329259  0.26585483    -0.16700
C345        C  0.50947457  0.01340109  0.22542215     0.07400
C346        C  0.56167658  0.04650933  0.22226895     0.09200
C347        C  0.58837411  0.07681325  0.25866770    -0.17600
C348        C  0.75314393  0.13203602  0.64122109    -0.16700
C349        C  0.72136993  0.12225519  0.59791739     0.07400
C350        C  0.68014267  0.11820917  0.54914115     0.09200
C351        C  0.64106454  0.11975109  0.51192452    -0.17600
C352        C  0.43894330  0.12011749  0.63220049    -0.16700
C353        C  0.42070805  0.13903768  0.67927506     0.07400
C354        C  0.39437989  0.16957766  0.72807826     0.09200
C355        C  0.36287372  0.19789317  0.76180765    -0.17600
C356        C  0.61837782  0.26610551  0.36675705    -0.16700
C357        C  0.64768326  0.25950449  0.32254985     0.07400
C358        C  0.68536386  0.24566064  0.27396053     0.09200
C359        C  0.72162549  0.23946229  0.23508200    -0.17600
C360        C  0.34659233  0.84162685  0.78842752    -0.16700
C361        C  0.38174599  0.81481471  0.81368804     0.07400
C362        C  0.41545118  0.77487744  0.84049211     0.09200
C363        C  0.43884821  0.73367168  0.85674288    -0.17600
C364        C  0.30559197  0.93235792  0.62513090    -0.16700
C365        C  0.33829991  0.93754313  0.58315770     0.07400
C366        C  0.38104222  0.93766167  0.53598318     0.09200
C367        C  0.42208837  0.93519905  0.50037538    -0.17600
C368        C  0.95084753  0.43616709  0.61345798    -0.16700
C369        C  0.99104602  0.41810638  0.64037391     0.07400
C370        C  0.05268144  0.42527269  0.63885662     0.09200
C371        C  0.08609187  0.45087276  0.61041553    -0.17600
C372        C  0.25445342  0.40885287  0.57821514    -0.16700
C373        C  0.24370706  0.37392473  0.61162977     0.07400
C374        C  0.23128584  0.33454254  0.65246289     0.09200
C375        C  0.22685589  0.30461532  0.69176797    -0.17600
C376        C  0.18786818  0.67950695  0.32478769    -0.16700
C377        C  0.18859912  0.71218022  0.28777591     0.07400
C378        C  0.19310912  0.74800697  0.24239252     0.09200
C379        C  0.20286234  0.77544343  0.20197226    -0.17600
C380        C  0.21487451  0.77249359  0.65843319    -0.17700
C381        C  0.21441782  0.72775818  0.62793496     0.07400
C382        C  0.21585573  0.67633331  0.59045905     0.09200
C383        C  0.21369793  0.63383099  0.55658662    -0.17600
C384        C  0.29656862  0.32502030  0.17861556    -0.16700
C385        C  0.32860915  0.36602640  0.18351750     0.07400
C386        C  0.36494751  0.41467858  0.19380666     0.09200
C387        C  0.39638100  0.45613269  0.19872571    -0.17600
C388        C  0.29182136  0.18134586  0.28951456    -0.16700
C389        C  0.32986010  0.17382399  0.32613386     0.07400
C390        C  0.37700738  0.16916633  0.36808637     0.09200
C391        C  0.41987530  0.16482294  0.40030055    -0.17600
C392        C  0.15410482  0.45733223  0.38459935    -0.16700
C393        C  0.14265284  0.41575505  0.35193963     0.07400
C394        C  0.13747080  0.36405220  0.31599715     0.09200
C395        C  0.14469154  0.32018541  0.28523178    -0.17600
loop_ 
_geom_bond_atom_site_label_1 
_geom_bond_atom_site_label_2 
_geom_bond_distance 
_geom_bond_site_symmetry_2 
_ccdc_geom_bond_type 
C1            C2   1.566       .  S
C1            C7   1.547       .  S
C1            C5   1.546       .  S
C1          C265   1.545       .  S
C2            H9   1.085       .  S
C2            C3   1.383       .  D
C3            C4   1.528       .  S
C3          C388   1.475       .  S
C4            C8   1.524       .  S
C4            C6   1.526       .  S
C4           H10   1.113       .  S
C5           H11   1.086       .  S
C5            C6   1.364       .  D
C6          C395   1.440       .  S
C7           H12   1.086       .  S
C7            C8   1.369       .  D
C8          C384   1.444       .  S
C13          C15   1.517       .  S
C13          C17   1.542       .  S
C13          C16   1.536       .  S
C13         C392   1.472       .  S
C14          C18   1.525       .  S
C14          C20   1.550       .  S
C14          C19   1.532       .  S
C14         C383   1.476       .  S
C15          C23   1.377       .  A
C15          C18   1.377       .  A
C16          C27   1.382       .  A
C16          C19   1.419       .  A
C17          C31   1.382       .  A
C17          C20   1.426       .  A
C18          C21   1.379       .  A
C19          C25   1.385       .  A
C20          C28   1.392       .  A
C21          N22   1.356       .  A
C21          H34   1.082       .  S
N22          C23   1.356       .  A
N22         C376   1.403       .  S
C23          H24   1.083       .  S
C25          N26   1.342       .  A
C25          H35   1.083       .  S
N26          C27   1.344       .  A
N26         C371   1.396       .  S
C27          H33   1.083       .  S
C28          N29   1.353       .  A
C28          H30   1.083       .  S
N29          C31   1.344       .  A
N29         C372   1.406       .  S
C31          H32   1.084       .  S
C36          C37   1.566       .  S
C36          C42   1.529       .  S
C36          C40   1.545       .  S
C36         C255   1.530       .  S
C37          H44   1.085       .  S
C37          C38   1.383       .  D
C38          C39   1.531       .  S
C38         C364   1.471       .  S
C39          C43   1.530       .  S
C39          C41   1.532       .  S
C39          H45   1.112       .  S
C40          H46   1.086       .  S
C40          C41   1.371       .  D
C41         C380   1.447       .  S
C42          H47   1.088       .  S
C42          C43   1.352       .  D
C43         C360   1.430       .  S
C48          C50   1.527       .  S
C48          C52   1.541       .  S
C48          C51   1.515       .  S
C48         C391   1.509       .  S
C49          C53   1.527       .  S
C49          C55   1.548       .  S
C49          C54   1.558       .  S
C49         C351   1.514       .  S
C50          C58   1.377       .  A
C50          C53   1.402       .  A
C51          C62   1.357       .  A
C51          C54   1.403       .  A
C52          C66   1.386       .  A
C52          C55   1.430       .  A
C53          C56   1.373       .  A
C54          C60   1.400       .  A
C55          C63   1.378       .  A
C56          N57   1.345       .  A
C56          H69   1.083       .  S
N57          C58   1.352       .  A
N57         C352   1.392       .  S
C58          H59   1.083       .  S
C60          N61   1.368       .  A
C60          H70   1.082       .  S
N61          C62   1.343       .  A
N61         C347   1.403       .  S
C62          H68   1.084       .  S
C63          N64   1.345       .  A
C63          H65   1.086       .  S
N64          C66   1.349       .  A
N64         C356   1.399       .  S
C66          H67   1.083       .  S
C71          C72   1.560       .  S
C71          C77   1.544       .  S
C71          C75   1.548       .  S
C71         C243   1.524       .  S
C72          H79   1.086       .  S
C72          C73   1.377       .  D
C73          C74   1.519       .  S
C73         C339   1.455       .  S
C74          C78   1.520       .  S
C74          C76   1.520       .  S
C74          H80   1.114       .  S
C75          H81   1.086       .  S
C75          C76   1.364       .  D
C76         C340   1.440       .  S
C77          H82   1.085       .  S
C77          C78   1.365       .  D
C78         C359   1.432       .  S
C83          C84   1.547       .  S
C83          C89   1.563       .  S
C83          C87   1.535       .  S
C83         C275   1.531       .  S
C84          H91   1.086       .  S
C84          C85   1.370       .  D
C85          C86   1.526       .  S
C85         C375   1.443       .  S
C86          C90   1.526       .  S
C86          C88   1.524       .  S
C86          H92   1.113       .  S
C87          H93   1.087       .  S
C87          C88   1.349       .  D
C88         C355   1.426       .  S
C89          H94   1.085       .  S
C89          C90   1.383       .  D
C90         C335   1.463       .  S
C95          C97   1.521       .  S
C95          C99   1.547       .  S
C95          C98   1.534       .  S
C95         C323   1.476       .  S
C96         C100   1.515       .  S
C96         C102   1.545       .  S
C96         C101   1.533       .  S
C96         C343   1.473       .  S
C97         C105   1.378       .  A
C97         C100   1.377       .  A
C98         C109   1.383       .  A
C98         C101   1.416       .  A
C99         C113   1.387       .  A
C99         C102   1.429       .  A
C100        C103   1.375       .  A
C101        C107   1.383       .  A
C102        C110   1.384       .  A
C103        N104   1.352       .  A
C103        H116   1.083       .  S
N104        C105   1.355       .  A
N104        C328   1.399       .  S
C105        H106   1.083       .  S
C107        N108   1.345       .  A
C107        H117   1.083       .  S
N108        C109   1.344       .  A
N108        C368   1.395       .  S
C109        H115   1.083       .  S
C110        N111   1.348       .  A
C110        H112   1.084       .  S
N111        C113   1.348       .  A
N111        C324   1.404       .  S
C113        H114   1.084       .  S
C118        C119   1.535       .  S
C118        C124   1.544       .  S
C118        C122   1.563       .  S
C118        C285   1.528       .  S
C119        H126   1.087       .  S
C119        C120   1.358       .  D
C120        C121   1.531       .  S
C120        C312   1.440       .  S
C121        C125   1.529       .  S
C121        C123   1.530       .  S
C121        H127   1.113       .  S
C122        H128   1.085       .  S
C122        C123   1.381       .  D
C123        C319   1.468       .  S
C124        H129   1.086       .  S
C124        C125   1.365       .  D
C125        C331   1.437       .  S
C130        C131   1.551       .  S
C130        C136   1.548       .  S
C130        C134   1.575       .  S
C130        C250   1.554       .  S
C131        H138   1.086       .  S
C131        C132   1.369       .  D
C132        C133   1.520       .  S
C132        C311   1.443       .  S
C133        C137   1.522       .  S
C133        C135   1.521       .  S
C133        H139   1.114       .  S
C134        H140   1.085       .  S
C134        C135   1.385       .  D
C135        C348   1.482       .  S
C136        H141   1.086       .  S
C136        C137   1.369       .  D
C137        C327   1.438       .  S
C142        C144   1.544       .  S
C142        C146   1.525       .  S
C142        C145   1.552       .  S
C142        C367   1.501       .  S
C143        C147   1.545       .  S
C143        C149   1.514       .  S
C143        C148   1.524       .  S
C143        C316   1.501       .  S
C144        C152   1.381       .  A
C144        C147   1.429       .  A
C145        C156   1.405       .  A
C145        C148   1.419       .  A
C146        C160   1.371       .  A
C146        C149   1.387       .  A
C147        C150   1.384       .  A
C148        C154   1.356       .  A
C149        C157   1.374       .  A
C150        N151   1.346       .  A
C150        H163   1.085       .  S
N151        C152   1.348       .  A
N151        C304   1.400       .  S
C152        H153   1.084       .  S
C154        N155   1.335       .  A
C154        H164   1.084       .  S
N155        C156   1.358       .  A
N155        C344   1.401       .  S
C156        H162   1.083       .  S
C157        N158   1.355       .  A
C157        H159   1.082       .  S
N158        C160   1.348       .  A
N158        C300   1.391       .  S
C160        H161   1.083       .  S
C165        C166   1.546       .  S
C165        C171   1.545       .  S
C165        C169   1.568       .  S
C165        C235   1.538       .  S
C166        H173   1.085       .  S
C166        C167   1.367       .  D
C167        C168   1.523       .  S
C167        C307   1.434       .  S
C168        C172   1.524       .  S
C168        C170   1.523       .  S
C168        H174   1.113       .  S
C169        H175   1.085   1_554  S
C169        C170   1.382       .  D
C170        C296   1.471       .  S
C171        H176   1.087       .  S
C171        C172   1.362       .  D
C172        C379   1.442       .  S
C177        C178   1.547       .  S
C177        C183   1.557       .  S
C177        C181   1.532       .  S
C177        C271   1.523       .  S
C178        H185   1.086       .  S
C178        C179   1.370       .  D
C179        C180   1.528       .  S
C179        C320   1.446       .  S
C180        C184   1.528       .  S
C180        C182   1.525       .  S
C180        H186   1.113       .  S
C181        H187   1.087       .  S
C181        C182   1.352       .  D
C182        C303   1.425       .  S
C183        H188   1.086       .  S
C183        C184   1.379       .  D
C184        C295   1.456       .  S
C189        C191   1.516       .  S
C189        C193   1.544       .  S
C189        C192   1.508       .  S
C189        C336   1.486       .  S
C190        C194   1.532       .  S
C190        C196   1.550       .  S
C190        C195   1.564       .  S
C190        C299   1.500       .  S
C191        C199   1.371       .  A
C191        C194   1.384       .  A
C192        C203   1.357       .  A
C192        C195   1.391       .  A
C193        C207   1.389       .  A
C193        C196   1.435       .  A
C194        C197   1.384       .  A
C195        C201   1.400       .  A
C196        C204   1.382       .  A
C197        N198   1.357       .  A
C197        H210   1.083       .  S
N198        C199   1.350       .  A
N198        C315   1.400       .  S
C199        H200   1.083       .  S
C201        N202   1.374       .  A
C201        H211   1.082   1_554  S
N202        C203   1.345       .  A
N202        C288   1.405   1_554  S
C203        H209   1.084       .  S
C204        N205   1.345       .  A
C204        H206   1.085       .  S
N205        C207   1.350       .  A
N205        C387   1.406       .  S
C207        H208   1.084       .  S
C212        C214   1.545       .  S
C212        C216   1.526       .  S
C212        C215   1.544       .  S
C212        C292   1.487       .  S
C213        C217   1.549       .  S
C213        C219   1.511       .  S
C213        C218   1.527       .  S
C213        C332   1.497       .  S
C214        C222   1.385       .  A
C214        C217   1.429       .  A
C215        C226   1.405       .  A
C215        C218   1.421       .  A
C216        C230   1.375       .  A
C216        C219   1.380       .  A
C217        C220   1.388       .  A
C218        C224   1.356       .  A
C219        C227   1.372       .  A
C220        N221   1.348       .  A
C220        H233   1.084       .  S
N221        C222   1.348       .  A
N221        C308   1.406       .  S
C222        H223   1.084       .  S
C224        N225   1.334       .  A
C224        H234   1.083       .  S
N225        C226   1.353       .  A
N225        C291   1.402       .  S
C226        H232   1.082       .  S
C227        N228   1.355       .  A
C227        H229   1.083       .  S
N228        C230   1.352       .  A
N228        C363   1.394       .  S
C230        H231   1.083       .  S
C235        N253   1.347       .  A
C235        C272   1.481       .  S
N236        N253   1.328       .  A
N236        N258   1.319       .  A
N236       Co273   2.068   1_554  S
C237        N262   1.354       .  A
C237        H282   1.081       .  S
C237        C275   1.465       .  S
H238        C279   1.081       .  S
C239        N263   1.353       .  A
C239        H268   1.081       .  S
C239        C243   1.476       .  S
Co240       N258   2.134   1_546  S
Co240       N248   2.115   1_556  S
Co240       N280   2.097   1_545  S
Co240       N256   2.101       .  S
Co240      Cl284   2.461       .  S
N241        C279   1.351       .  A
N241        N248   1.330       .  A
N241       Co242   2.169   1_554  S
Co242       N245   2.062   1_456  S
Co242       N262   2.079       .  S
Co242       N249   2.189   1_455  S
Co242      Cl284   2.473       .  S
C243        N281   1.345       .  A
N244        N251   1.327       .  A
N244        N274   1.328       .  A
N244       Co277   2.106   1_564  S
N245        N263   1.318       .  A
N245        N281   1.325       .  A
N246        C275   1.353       .  A
N246        N256   1.324       .  A
H247        C272   1.081       .  S
N248        N269   1.334       .  A
N249        N267   1.328       .  A
N249        N254   1.340       .  A
C250        N254   1.374       .  A
C250        C278   1.461       .  S
N251        C266   1.349       .  A
N251       Co273   2.149   1_654  S
C252        N280   1.340       .  A
C252        H286   1.081   1_565  S
C252        C255   1.464       .  S
C255        N276   1.370       .  A
N256        N262   1.318       .  A
N257        C283   1.348       .  A
N257        N259   1.318       .  A
N257       Co273   2.068   1_655  S
N258        C272   1.357       .  A
N259        N287   1.326       .  A
N259       Co277   2.104   1_565  S
H260        C283   1.082       .  S
H261        C278   1.082       .  S
N263       Co277   2.116   1_554  S
N264        N276   1.335       .  A
N264        N280   1.325       .  A
N264       Co273   2.158       .  S
C265        N269   1.357       .  A
C265        C279   1.482       .  S
C266        H270   1.081   1_655  S
C266        C285   1.482       .  S
N267        C278   1.346       .  A
N267       Co277   2.107       .  S
C271        N287   1.355       .  A
C271        C283   1.458       .  S
Co273      Cl284   2.475   1_565  S
N274        C285   1.354       .  A
Co277      Cl284   2.462   1_655  S
C288        C289   1.210       .  T
C289        C290   1.418       .  S
C290        C291   1.209       .  T
C292        C293   1.216       .  T
C293        C294   1.428       .  S
C294        C295   1.216       .  T
C296        C297   1.224       .  T
C297        C298   1.442       .  S
C298        C299   1.224       .  T
C300        C301   1.196       .  T
C301        C302   1.396       .  S
C302        C303   1.196       .  T
C304        C305   1.203       .  T
C305        C306   1.408       .  S
C306        C307   1.202       .  T
C308        C309   1.209       .  T
C309        C310   1.417       .  S
C310        C311   1.208       .  T
C312        C313   1.204       .  T
C313        C314   1.410       .  S
C314        C315   1.204       .  T
C316        C317   1.223       .  T
C317        C318   1.439       .  S
C318        C319   1.223       .  T
C320        C321   1.209       .  T
C321        C322   1.417       .  S
C322        C323   1.209       .  T
C324        C325   1.207       .  T
C325        C326   1.413       .  S
C326        C327   1.205       .  T
C328        C329   1.204       .  T
C329        C330   1.408       .  S
C330        C331   1.203       .  T
C332        C333   1.220       .  T
C333        C334   1.435       .  S
C334        C335   1.220       .  T
C336        C337   1.216       .  T
C337        C338   1.428       .  S
C338        C339   1.215       .  T
C340        C341   1.205       .  T
C341        C342   1.413       .  S
C342        C343   1.207       .  T
C344        C345   1.209   1_565  T
C345        C346   1.418       .  S
C346        C347   1.210       .  T
C348        C349   1.231       .  T
C349        C350   1.454       .  S
C350        C351   1.232       .  T
C352        C353   1.196       .  T
C353        C354   1.396       .  S
C354        C355   1.196       .  T
C356        C357   1.202       .  T
C357        C358   1.406       .  S
C358        C359   1.201       .  T
C360        C361   1.198       .  T
C361        C362   1.400       .  S
C362        C363   1.199       .  T
C364        C365   1.224       .  T
C365        C366   1.442       .  S
C366        C367   1.224       .  T
C368        C369   1.198       .  T
C369        C370   1.394   1_655  S
C370        C371   1.198       .  T
C372        C373   1.209       .  T
C373        C374   1.416       .  S
C374        C375   1.208       .  T
C376        C377   1.207       .  T
C377        C378   1.414       .  S
C378        C379   1.206       .  T
C380        C381   1.209       .  T
C381        C382   1.418       .  S
C382        C383   1.210       .  T
C384        C385   1.208       .  T
C385        C386   1.416       .  S
C386        C387   1.208       .  T
C388        C389   1.227       .  T
C389        C390   1.447       .  S
C390        C391   1.227       .  T
C392        C393   1.206       .  T
C393        C394   1.411       .  S
C394        C395   1.205       .  T
