geometry optimzed in LAMMPS
_audit_creation_date              2020-12-01 
_audit_creation_method            'lammps2cif' 
_symmetry_space_group_name_H-M    'P1' 
_symmetry_Int_Tables_number       1 
_symmetry_cell_setting            triclinic 
loop_ 
_symmetry_equiv_pos_as_xyz 
  x,y,z 
_cell_length_a                    26.23839438 
_cell_length_b                    27.86990982732453 
_cell_length_c                    27.56921610037531 
_cell_angle_alpha                 89.79768429437976 
_cell_angle_beta                  90.7078490776764 
_cell_angle_gamma                 78.96067964839465 
loop_ 
_atom_site_label 
_atom_site_type_symbol 
_atom_site_fract_x 
_atom_site_fract_y 
_atom_site_fract_z 
_atom_site_charge 
C1          C  0.90841203  0.88216502  0.66195987     0.85400
C2          C  0.92383582  0.91605936  0.62262335    -0.54800
C3          C  0.90192734  0.91066268  0.57781190     0.08300
C4          C  0.86699391  0.87209552  0.57685428     0.19300
C5          C  0.84867780  0.89343501  0.66089320    -0.55600
C6          C  0.82699631  0.88847804  0.61649517     0.08400
C7          C  0.92370060  0.83092592  0.64069845    -0.55100
C8          C  0.90158258  0.82520808  0.59681697     0.09000
H9          H  0.94941936  0.94145212  0.62936611     0.13500
H10         H  0.84934413  0.86718795  0.54080460    -0.00700
H11         H  0.82555951  0.90542099  0.69258633     0.13800
H12         H  0.94777885  0.80069220  0.66017401     0.13600
C13         C  0.44674428  0.52358610  0.66344556     0.85400
C14         C  0.42734879  0.49606085  0.62129983    -0.54800
C15         C  0.44702548  0.50526303  0.57709299     0.08300
C16         C  0.48410679  0.54208948  0.57940978     0.19300
C17         C  0.50660857  0.51039876  0.66072091    -0.55600
C18         C  0.52627531  0.51959796  0.61667012     0.08400
C19         C  0.43386971  0.57767180  0.64835617    -0.55100
C20         C  0.45301136  0.58732776  0.60463900     0.09000
H21         H  0.40017302  0.47182074  0.62680124     0.13500
H22         H  0.49963534  0.55017188  0.54362435    -0.00700
H23         H  0.53138394  0.49542138  0.69110899     0.13800
H24         H  0.41437176  0.60704003  0.67107067     0.13600
C25         C  0.85962873  0.58700645  0.97581480     0.85400
C26         C  0.80443691  0.58084314  0.98920871    -0.54800
C27         C  0.79325831  0.53639241  0.97682839     0.08300
C28         C  0.83845613  0.50215778  0.95181696     0.19300
C29         C  0.89525037  0.54301382  0.00048108    -0.55600
C30         C  0.88369512  0.49867903  0.98873639     0.08400
C31         C  0.86415364  0.57577642  0.92150239    -0.55100
C32         C  0.85295155  0.53187624  0.90835264     0.09000
H33         H  0.77686991  0.60900853  0.00720579     0.13500
H34         H  0.82943433  0.46612158  0.94171518    -0.00700
H35         H  0.92667065  0.54587001  0.02511145     0.13800
H36         H  0.87591802  0.60073711  0.89540361     0.13600
C37         C  0.48732692  0.81843182  0.98192824     0.85400
C38         C  0.54403266  0.82155237  0.99406802    -0.54800
C39         C  0.55640052  0.86611886  0.98403821     0.08300
C40         C  0.51074794  0.90338336  0.96217882     0.19300
C41         C  0.45496967  0.86140825  0.00988223    -0.55600
C42         C  0.46739424  0.90582106  0.99988286     0.08400
C43         C  0.47991048  0.83350958  0.92862286    -0.55100
C44         C  0.49277503  0.87722867  0.91767359     0.09000
H45         H  0.57159187  0.79135310  0.00994094     0.13500
H46         H  0.52074836  0.93934150  0.95329915    -0.00700
H47         H  0.42518384  0.85771860  0.03539661     0.13800
H48         H  0.46646750  0.81063506  0.90128373     0.13600
C49         C  0.94885872  0.01948190  0.39932799     0.85400
C50         C  0.00837838  0.01100403  0.40550318    -0.54800
C51         C  0.02500435  0.02089380  0.45075500     0.08300
C52         C  0.98065551  0.03878280  0.48592934     0.19300
C53         C  0.93128942  0.98804105  0.43960235    -0.55600
C54         C  0.94808859  0.99826476  0.48525494     0.08400
C55         C  0.92922710  0.07204612  0.41549940    -0.55100
C56         C  0.94637299  0.08261505  0.46006534     0.09000
H57         H  0.03505484  0.99775705  0.37654541     0.13500
H58         H  0.99423451  0.04755384  0.52259746    -0.00700
H59         H  0.90889329  0.96003373  0.43264125     0.13800
H60         H  0.90642488  0.09974225  0.39202775     0.13600
C61         C  0.98784530  0.31339118  0.09023464     0.85400
C62         C  0.95213645  0.35703677  0.06500888    -0.54800
C63         C  0.96450832  0.40140242  0.07529208     0.08300
C64         C  0.01071121  0.39832848  0.11106421     0.19300
C65         C  0.04284618  0.31843436  0.07566233    -0.55600
C66         C  0.05507675  0.36285197  0.08601138     0.08400
C67         C  0.98449509  0.32583464  0.14417953    -0.55100
C68         C  0.99655620  0.36978685  0.15580253     0.09000
H69         H  0.92002986  0.35397835  0.04120830     0.13500
H70         H  0.02056000  0.43430720  0.12009259    -0.00700
H71         H  0.06930947  0.28960095  0.05736605     0.13800
H72         H  0.97296350  0.30164186  0.17120584     0.13600
C73         C  0.36336624  0.09085139  0.09668953     0.85400
C74         C  0.39984945  0.04672237  0.07431999    -0.54800
C75         C  0.38760867  0.00246194  0.08530423     0.08300
C76         C  0.34089154  0.00614729  0.11942533     0.19300
C77         C  0.30877689  0.08494902  0.08050336    -0.55600
C78         C  0.29680506  0.04066914  0.09196423     0.08400
C79         C  0.36585246  0.07988503  0.15111332    -0.55100
C80         C  0.35383737  0.03604959  0.16371284     0.09000
H81         H  0.43242766  0.04946120  0.05182152     0.13500
H82         H  0.33110089  0.97031460  0.12916796    -0.00700
H83         H  0.28237083  0.11313121  0.06050411     0.13800
H84         H  0.37682275  0.10496381  0.17761581     0.13600
C85         C  0.40341696  0.39211897  0.39929720     0.85400
C86         C  0.34377823  0.40081963  0.40249434    -0.54800
C87         C  0.32570340  0.39299580  0.44738591     0.08300
C88         C  0.36904705  0.37662227  0.48525999     0.19300
C89         C  0.42004381  0.42524984  0.43879109    -0.55600
C90         C  0.40194016  0.41698491  0.48406002     0.08400
C91         C  0.42252290  0.34031635  0.41876904    -0.55100
C92         C  0.40399102  0.33162893  0.46298988     0.09000
H93         H  0.31807504  0.41279471  0.37178853     0.13500
H94         H  0.35443372  0.36946314  0.52172129    -0.00700
H95         H  0.44443493  0.45165119  0.43208645     0.13800
H96         H  0.44607662  0.31165916  0.39763805     0.13600
Zr97       Zr  0.88010090  0.90404368  0.96765204     2.17500
O98         O  0.81756285  0.92022854  0.90049915    -0.52400
O99         O  0.88455073  0.81624153  0.97180733    -0.75600
O100        O  0.91980583  0.88497868  0.88990508    -0.82400
O101        O  0.77077024  0.93261687  0.05894318    -0.84200
O102        O  0.99257425  0.91764971  0.88365524    -0.79800
O103        O  0.79220591  0.89668223  0.98603209    -0.91400
O104        O  0.94078479  0.78724675  0.03293264    -0.77400
O105        O  0.97034234  0.87574063  0.98294049    -0.86900
O106        O  0.88562053  0.88236644  0.05115481    -0.86600
O107        O  0.92103433  0.97146679  0.94765504    -0.73300
O108        O  0.84194705  0.97691789  0.00984098    -0.85500
Zr109      Zr  0.98100305  0.99332399  0.09138746     2.26400
Zr110      Zr  0.01191024  0.94347071  0.96551631     2.06300
Zr111      Zr  0.84951651  0.95499038  0.09395196     2.10000
Zr112      Zr  0.97566544  0.85449187  0.06662948     1.78800
O113        O  0.78148154  0.02385361  0.11504861    -0.94300
O114        O  0.05163755  0.79866914  0.03670987    -0.42100
O115        O  0.93999736  0.92633674  0.11119945    -0.78700
O116        O  0.01905954  0.92048835  0.04937818    -0.97400
O117        O  0.97515102  0.01588599  0.00827496    -0.90700
O118        O  0.89103187  0.02209240  0.07587933    -0.93500
C119        C  0.90805330  0.78163843  0.99949048     1.00200
C120        C  0.76015988  0.91033166  0.02029880     1.13200
C121        C  0.95717879  0.89646282  0.86571246     1.03900
O122        O  0.08582541  0.87977827  0.94558398    -0.95700
O123        O  0.09000614  0.96888998  0.99978117    -0.91400
O124        O  0.06670742  0.00525997  0.07209125    -0.84600
C125        C  0.09938836  0.99205442  0.03836071     1.10600
O126        O  0.82025879  0.05856608  0.92684062    -0.97700
Zr127      Zr  0.88505637  0.04310959  0.99208018     1.88900
O128        O  0.97480167  0.08129418  0.08850540    -0.74300
O129        O  0.03561205  0.00336508  0.90982674    -0.53600
O130        O  0.91527856  0.08690841  0.92487638    -0.98200
O131        O  0.80820706  0.10024068  0.01877143    -0.55500
O132        O  0.91858668  0.11000414  0.02726729    -0.74800
C133        C  0.95032812  0.11590891  0.06138346     0.97500
O134        O  0.04308512  0.97350506  0.15876871    -0.63600
O135        O  0.81845331  0.90053032  0.15115990    -0.58400
O136        O  0.94290080  0.01120127  0.16949057    -0.95100
O137        O  0.87348046  0.97401213  0.17675728    -0.93600
O138        O  0.94866338  0.81370014  0.13739354    -0.93900
O139        O  0.04342902  0.83441120  0.12855819    -0.92700
C140        C  0.90778868  0.99669836  0.19439880     1.16400
H141        H  0.86592727  0.85734712  0.05837346     0.32300
H142        H  0.05513721  0.91038596  0.05887728     0.43200
H143        H  0.87794584  0.04990028  0.09601169     0.36700
H144        H  0.91567274  0.97970399  0.91369270     0.33200
H145        H  0.05068458  0.76709547  0.05291558     0.25000
H146        H  0.06243071  0.98423898  0.88891802     0.30900
H147        H  0.90047963  0.12183266  0.93062452     0.36800
H148        H  0.96158443  0.77843508  0.13168317     0.31300
H149        H  0.78407901  0.91861490  0.16138913     0.30100
H150        H  0.76511642  0.01270377  0.14409795     0.31800
H151        H  0.81314452  0.13261236  0.00695532     0.30800
H152        H  0.04063664  0.86454117  0.14804141     0.34800
H153        H  0.02719835  0.95314000  0.18142664     0.27500
H154        H  0.82166202  0.88945330  0.88184218     0.31800
H155        H  0.81216915  0.09448219  0.92217598     0.34600
H156        H  0.81061657  0.87311399  0.13150117     0.27200
H157        H  0.07283859  0.95022042  0.14542934     0.40100
H158        H  0.07061226  0.85061783  0.93864220     0.30100
H159        H  0.04334704  0.79318844  0.00228649     0.37800
H160        H  0.81164469  0.10215097  0.05445241     0.29600
H161        H  0.00490179  0.01299666  0.88821096     0.29700
H162        H  0.83056103  0.94361134  0.87895495     0.29900
Zr163      Zr  0.98945707  0.38671519  0.48048328     2.17500
O164        O  0.06242129  0.31828880  0.47245034    -0.52400
O165        O  0.98529592  0.39034750  0.39150080    -0.75600
O166        O  0.96429993  0.30727759  0.47707644    -0.82400
O167        O  0.08617957  0.46976990  0.50944210    -0.84200
O168        O  0.88152639  0.31355923  0.50335332    -0.79800
O169        O  0.07897137  0.39778739  0.47404387    -0.91400
O170        O  0.92813575  0.45825553  0.36796670    -0.77400
O171        O  0.89976855  0.41045026  0.45965402    -0.86900
O172        O  0.97727081  0.47125625  0.46111863    -0.86600
O173        O  0.94321518  0.37083426  0.55223256    -0.73300
O174        O  0.01385114  0.42552463  0.55266125    -0.85500
Zr175      Zr  0.86235498  0.52036887  0.58343881     2.26400
Zr176      Zr  0.85283669  0.39678566  0.53115533     2.06300
Zr177      Zr  0.99948840  0.51059804  0.53325218     2.10000
Zr178      Zr  0.88764188  0.49527221  0.44104450     1.78800
O179        O  0.05805739  0.52971145  0.59643774    -0.94300
O180        O  0.81680345  0.47393986  0.39289483    -0.42100
O181        O  0.90955105  0.53544434  0.51269945    -0.78700
O182        O  0.83782561  0.48199307  0.51058192    -0.97400
O183        O  0.87553334  0.43588827  0.60336157    -0.90700
O184        O  0.95227954  0.49695254  0.60442786    -0.93500
C185        C  0.96200235  0.41984954  0.35863545     1.00200
C186        C  0.10542346  0.42978907  0.48764895     1.13200
C187        C  0.92435349  0.28902675  0.48725404     1.03900
O188        O  0.79005119  0.38561926  0.46848978    -0.95700
O189        O  0.76824896  0.43278738  0.56450762    -0.91400
O190        O  0.77152209  0.51164874  0.58244973    -0.84600
C191        C  0.74705154  0.47617406  0.57770806     1.10600
O192        O  0.03946579  0.34510645  0.63556714    -0.97700
Zr193      Zr  0.96543933  0.41183313  0.62297933     1.88900
O194        O  0.86587948  0.51295309  0.67250971    -0.74300
O195        O  0.82410703  0.34009988  0.58744143    -0.53600
O196        O  0.93871553  0.34122971  0.66006816    -0.98200
O197        O  0.03350784  0.43366392  0.67465244    -0.55500
O198        O  0.92124217  0.44391491  0.69604073    -0.74800
C199        C  0.88757487  0.48243943  0.70530155     0.97500
O200        O  0.80354921  0.59398725  0.61036749    -0.63600
O201        O  0.02913576  0.56446041  0.47444304    -0.58400
O202        O  0.88095372  0.60210239  0.57228120    -0.95100
O203        O  0.96531986  0.59564948  0.55099780    -0.93600
O204        O  0.91781917  0.56197669  0.40007389    -0.93900
O205        O  0.81888400  0.56592103  0.42551403    -0.92700
C206        C  0.92077590  0.62073009  0.56220625     1.16400
H207        H  0.99894461  0.47704889  0.43452724     0.32300
H208        H  0.80194361  0.49368446  0.50131415     0.43200
H209        H  0.96130084  0.51582563  0.63144959     0.36700
H210        H  0.95087012  0.33662684  0.56093281     0.33200
H211        H  0.81885226  0.48984112  0.36099431     0.25000
H212        H  0.80293770  0.32165417  0.56743436     0.30900
H213        H  0.90174158  0.35263542  0.66818742     0.36800
H214        H  0.90741113  0.55940936  0.36567767     0.31300
H215        H  0.05835528  0.57584445  0.49090555     0.30100
H216        H  0.06690976  0.56116503  0.58616713     0.31800
H217        H  0.01742872  0.46435309  0.69090852     0.30800
H218        H  0.81050955  0.58032309  0.45790748     0.34800
H219        H  0.77730183  0.60286399  0.58409290     0.27500
H220        H  0.05462940  0.29978152  0.44356175     0.31800
H221        H  0.03994324  0.33725039  0.67064936     0.34600
H222        H  0.04561259  0.54290023  0.44827328     0.27200
H223        H  0.78422173  0.58366257  0.63792512     0.40100
H224        H  0.76952053  0.41878943  0.46227115     0.30100
H225        H  0.82760286  0.43855532  0.38637399     0.37800
H226        H  0.05846244  0.44353228  0.65177040     0.29600
H227        H  0.85579939  0.31596370  0.59605890     0.29700
H228        H  0.06052602  0.29643279  0.50049571     0.29900
Zr229      Zr  0.47112008  0.50016165  0.96679136     2.17500
O230        O  0.53312218  0.51280425  0.90481978    -0.52400
O231        O  0.46188572  0.58909800  0.97167116    -0.75600
O232        O  0.43752855  0.50116721  0.88424739    -0.82400
O233        O  0.58031231  0.47647716  0.06173052    -0.84200
O234        O  0.35730881  0.48136520  0.88155515    -0.79800
O235        O  0.56355664  0.49077827  0.98142058    -0.91400
O236        O  0.40664188  0.61746088  0.03205811    -0.77400
O237        O  0.38071918  0.52705469  0.98045951    -0.86900
O238        O  0.46545760  0.52303285  0.04985592    -0.86600
O239        O  0.43215258  0.43064016  0.94835437    -0.73300
O240        O  0.51025667  0.42819497  0.01161831    -0.85500
Zr241      Zr  0.37248396  0.40984283  0.09138474     2.26400
Zr242      Zr  0.34088945  0.45764979  0.96413547     2.06300
Zr243      Zr  0.50289257  0.45131510  0.09506568     2.10000
Zr244      Zr  0.37499453  0.54870774  0.06398362     1.78800
O245        O  0.57269828  0.38328662  0.11645551    -0.94300
O246        O  0.29904704  0.60295680  0.02977840    -0.42100
O247        O  0.41223994  0.47797466  0.11042717    -0.78700
O248        O  0.33281903  0.48176106  0.04732445    -0.97400
O249        O  0.37877932  0.38607927  0.00905723    -0.90700
O250        O  0.46291198  0.38274602  0.07828082    -0.93500
C251        C  0.43827714  0.62356475  0.99876406     1.00200
C252        C  0.59386847  0.48646505  0.01863631     1.13200
C253        C  0.39691767  0.49352835  0.86158417     1.03900
O254        O  0.26722530  0.51985242  0.93817013    -0.95700
O255        O  0.26303542  0.43232095  0.99731609    -0.91400
O256        O  0.28666257  0.39686551  0.07074675    -0.84600
C257        C  0.25380219  0.40947650  0.03609677     1.10600
O258        O  0.53783415  0.34301426  0.93558863    -0.97700
Zr259      Zr  0.46898421  0.36019091  0.99530824     1.88900
O260        O  0.37837649  0.32214301  0.08936644    -0.74300
O261        O  0.31811030  0.39528269  0.91082451    -0.53600
O262        O  0.43653335  0.32112616  0.92553608    -0.98200
O263        O  0.54537633  0.30177630  0.02306871    -0.55500
O264        O  0.43546919  0.29288785  0.03050547    -0.74800
C265        C  0.40297342  0.28731920  0.06347851     0.97500
O266        O  0.31186590  0.42883843  0.15832259    -0.63600
O267        O  0.53277919  0.50545576  0.15369209    -0.58400
O268        O  0.41224907  0.39161192  0.16973678    -0.95100
O269        O  0.47863958  0.43292118  0.17751388    -0.93600
O270        O  0.40158255  0.59065775  0.13454953    -0.93900
O271        O  0.30756136  0.56800586  0.12461509    -0.92700
C272        C  0.44595911  0.40861888  0.19499600     1.16400
H273        H  0.48473029  0.54848743  0.05691882     0.32300
H274        H  0.29672319  0.49144678  0.05587606     0.43200
H275        H  0.47687655  0.35536552  0.09917992     0.36700
H276        H  0.43777876  0.42010747  0.91523346     0.33200
H277        H  0.29793243  0.63441814  0.04668473     0.25000
H278        H  0.28843094  0.41265867  0.89108696     0.30900
H279        H  0.44659718  0.28561780  0.93217629     0.36800
H280        H  0.38466862  0.62533745  0.12993654     0.31300
H281        H  0.57034665  0.49229866  0.15826313     0.30100
H282        H  0.59729038  0.39818777  0.13617927     0.31800
H283        H  0.54041118  0.26989612  0.01004511     0.30800
H284        H  0.31152349  0.53817620  0.14499184     0.34800
H285        H  0.32754814  0.45016544  0.18032621     0.24300
H286        H  0.51643208  0.54218093  0.88616355     0.31800
H287        H  0.53866888  0.30901355  0.92483729     0.34600
H288        H  0.53115199  0.53682264  0.13622954     0.27200
H289        H  0.28115443  0.45108082  0.14439936     0.40100
H290        H  0.28176005  0.54977330  0.93343000     0.30100
H291        H  0.30865455  0.60950861  0.99611333     0.37800
H292        H  0.54142948  0.29869700  0.05852678     0.29600
H293        H  0.34712506  0.38775247  0.88773974     0.29700
H294        H  0.53538307  0.48518033  0.88192882     0.29900
Zr295      Zr  0.36070986  0.02694700  0.48841137     2.17500
O296        O  0.28823074  0.09471894  0.47284439    -0.52400
O297        O  0.36372523  0.01944310  0.39969346    -0.75600
O298        O  0.38562954  0.10694448  0.48447141    -0.82400
O299        O  0.26312956  0.94601586  0.52193718    -0.84200
O300        O  0.46948766  0.10042654  0.50958817    -0.79800
O301        O  0.27065071  0.01732303  0.48500200    -0.91400
O302        O  0.41594824  0.94835048  0.37852169    -0.77400
O303        O  0.44910996  0.00090143  0.46662485    -0.86900
O304        O  0.37041373  0.94175169  0.47335492    -0.86600
O305        O  0.40948917  0.04399762  0.55893822    -0.73300
O306        O  0.33769666  0.99079948  0.56251677    -0.85500
Zr307      Zr  0.48880205  0.89493580  0.59500764     2.26400
Zr308      Zr  0.49857250  0.01646939  0.53680209     2.06300
Zr309      Zr  0.34977021  0.90505479  0.54742301     2.10000
Zr310      Zr  0.45901662  0.91533046  0.45263451     1.78800
O311        O  0.29473231  0.89172654  0.61470614    -0.94300
O312        O  0.52916357  0.93451767  0.40357172    -0.42100
O313        O  0.43856175  0.87820826  0.52612552    -0.78700
O314        O  0.51163384  0.93042409  0.52036299    -0.97400
O315        O  0.47786240  0.97988702  0.61099608    -0.90700
O316        O  0.40010378  0.91991646  0.61696675    -0.93500
C317        C  0.38400656  0.98786868  0.36796566     1.00200
C318        C  0.24403871  0.98587280  0.49923533     1.13200
C319        C  0.42596874  0.12527304  0.49406102     1.03900
O320        O  0.55894002  0.03179303  0.47478619    -0.95700
O321        O  0.58593523  0.97817596  0.56223170    -0.91400
O322        O  0.57876414  0.90611216  0.59765228    -0.84600
C323        C  0.60527779  0.93784586  0.58395083     1.10600
O324        O  0.32202945  0.07873269  0.64020768    -0.97700
Zr325      Zr  0.38894825  0.00543303  0.63158129     1.88900
O326        O  0.48621174  0.90092505  0.68334276    -0.74300
O327        O  0.52990587  0.06787129  0.59713777    -0.53600
O328        O  0.42473399  0.06912776  0.67272574    -0.98200
O329        O  0.31676754  0.99047373  0.68063927    -0.55500
O330        O  0.43012020  0.96930680  0.70547610    -0.74800
C331        C  0.46383740  0.93078244  0.71544364     0.97500
O332        O  0.54992363  0.82140426  0.62040680    -0.63600
O333        O  0.31312626  0.84971825  0.49499023    -0.58400
O334        O  0.46855722  0.81366445  0.58686068    -0.95100
O335        O  0.38369294  0.81945366  0.56568383    -0.93600
O336        O  0.42727766  0.84875935  0.41279950    -0.93900
O337        O  0.52562040  0.84253874  0.44124789    -0.92700
C338        C  0.42868066  0.79462496  0.57730313     1.16400
H339        H  0.34748304  0.93547082  0.44747707     0.32300
H340        H  0.54698706  0.91743570  0.51147536     0.43200
H341        H  0.39195105  0.90188601  0.64487323     0.36700
H342        H  0.40254309  0.07823976  0.56710065     0.33200
H343        H  0.52538150  0.91868954  0.37198164     0.25000
H344        H  0.55113512  0.08718758  0.57862968     0.30900
H345        H  0.41554282  0.06665185  0.70725497     0.36800
H346        H  0.41433831  0.83071255  0.43953497     0.31300
H347        H  0.28202402  0.84363413  0.51214136     0.30100
H348        H  0.27857505  0.86405279  0.60433504     0.31800
H349        H  0.32284933  0.00380860  0.71298653     0.30800
H350        H  0.53338027  0.82893506  0.47433647     0.34800
H351        H  0.57593432  0.81481362  0.59434872     0.27500
H352        H  0.29732351  0.11158805  0.44341640     0.31800
H353        H  0.32183521  0.08721453  0.67505729     0.34600
H354        H  0.29917483  0.86939153  0.46614596     0.27200
H355        H  0.56907709  0.83088084  0.64888800     0.40100
H356        H  0.53672260  0.04695382  0.44741743     0.30100
H357        H  0.51921881  0.96996596  0.39654984     0.37800
H358        H  0.32300639  0.95466669  0.68580350     0.29600
H359        H  0.49874345  0.09187467  0.60652023     0.29700
H360        H  0.28881292  0.11814275  0.49968020     0.29900
C361        C  0.25009950  0.42874158  0.49885508    -0.14400
C362        C  0.26951330  0.40112279  0.45836648     0.07700
C363        C  0.23485309  0.38248900  0.42778253    -0.14400
C364        C  0.18166327  0.39113221  0.43770573    -0.14400
C365        C  0.16193082  0.41971154  0.47768690     0.07700
C366        C  0.19673653  0.43851757  0.50807120    -0.14400
H367        H  0.27611465  0.44371865  0.52272785     0.11700
H368        H  0.24903955  0.36091236  0.39642340     0.11700
H369        H  0.15581514  0.37624801  0.41357053     0.11700
H370        H  0.18271278  0.46044262  0.53924456     0.11700
C371        C  0.44951460  0.43039293  0.33060179    -0.14400
C372        C  0.42057470  0.39606712  0.34726843     0.07700
C373        C  0.40562662  0.36325229  0.31377900    -0.14400
C374        C  0.41738369  0.36540796  0.26512070    -0.14400
C375        C  0.44383843  0.40107418  0.24787074     0.07700
C376        C  0.46094154  0.43290002  0.28112862    -0.14400
H377        H  0.46209160  0.45626347  0.35482346     0.11700
H378        H  0.38353611  0.33622473  0.32532880     0.11700
H379        H  0.40382283  0.34009509  0.24062452     0.11700
H380        H  0.48099434  0.46107186  0.26863651     0.11700
C381        C  0.45973019  0.25077241  0.48135097    -0.14400
C382        C  0.41032863  0.28099973  0.48103655     0.07700
C383        C  0.36635379  0.26019499  0.48748513    -0.14400
C384        C  0.37149786  0.20948295  0.49144898    -0.14400
C385        C  0.42081912  0.17888126  0.48979470     0.07700
C386        C  0.46499877  0.20016981  0.48613449    -0.14400
H387        H  0.49405823  0.26626801  0.47572843     0.11700
H388        H  0.32787616  0.28285537  0.48635332     0.11700
H389        H  0.33678659  0.19420116  0.49525073     0.11700
H390        H  0.50349005  0.17762373  0.48533024     0.11700
C391        C  0.34229759  0.18239980  0.10764818    -0.14400
C392        C  0.37380422  0.14178549  0.08579460     0.07700
C393        C  0.41418246  0.15023218  0.05559826    -0.14400
C394        C  0.42348775  0.19733916  0.04866661    -0.14400
C395        C  0.39282654  0.23748942  0.07149528     0.07700
C396        C  0.35177706  0.22958384  0.10080934    -0.14400
H397        H  0.31053582  0.17739682  0.13067566     0.11700
H398        H  0.43927292  0.12134487  0.03688272     0.11700
H399        H  0.45512557  0.20217781  0.02542830     0.11700
H400        H  0.32682642  0.25982555  0.11838128     0.11700
C401        C  0.33661887  0.05571892  0.25139023    -0.14400
C402        C  0.35435782  0.02074792  0.21563635     0.07700
C403        C  0.37750319  0.97329056  0.23043391    -0.14400
C404        C  0.38586415  0.96206705  0.27998461    -0.14400
C405        C  0.37064651  0.99798546  0.31571588     0.07700
C406        C  0.34454341  0.04450376  0.30069523    -0.14400
H407        H  0.31775431  0.09243297  0.24111135     0.11700
H408        H  0.39159128  0.94567424  0.20372745     0.11700
H409        H  0.40555391  0.92560296  0.29021629     0.11700
H410        H  0.33178157  0.07292618  0.32696807     0.11700
C411        C  0.15323303  0.05096309  0.06594403    -0.14400
C412        C  0.15087791  0.00494991  0.04639263     0.07700
C413        C  0.19705624  0.97032049  0.04164343    -0.14400
C414        C  0.24465818  0.98141324  0.05729273    -0.14400
C415        C  0.24669238  0.02754449  0.07695549     0.07700
C416        C  0.20054997  0.06227192  0.08063680    -0.14400
H417        H  0.11806981  0.07806358  0.07057736     0.11700
H418        H  0.19603212  0.93427250  0.02759988     0.11700
H419        H  0.27986508  0.95420843  0.05364551     0.11700
H420        H  0.20092143  0.09796948  0.09588475     0.11700
C421        C  0.96511689  0.43176834  0.22038706    -0.14400
C422        C  0.99441569  0.38629354  0.20725987     0.07700
C423        C  0.01570545  0.35325795  0.24425363    -0.14400
C424        C  0.00629279  0.36453824  0.29319417    -0.14400
C425        C  0.97484072  0.40908395  0.30657677     0.07700
C426        C  0.95515808  0.44294919  0.26948448    -0.14400
H427        H  0.94776727  0.45760637  0.19263474     0.11700
H428        H  0.03851811  0.31787162  0.23512426     0.11700
H429        H  0.02248974  0.33767013  0.32046144     0.11700
H430        H  0.93114799  0.47783412  0.27830490     0.11700
C431        C  0.10800146  0.42033543  0.04959186    -0.14400
C432        C  0.10554773  0.37521895  0.07162200     0.07700
C433        C  0.15165127  0.34068943  0.07827257    -0.14400
C434        C  0.19932940  0.35148043  0.06474514    -0.14400
C435        C  0.20213252  0.39667292  0.04322038     0.07700
C436        C  0.15592867  0.43080556  0.03499155    -0.14400
H437        H  0.07287146  0.44729569  0.04344882     0.11700
H438        H  0.15096620  0.30565687  0.09512581     0.11700
H439        H  0.23438416  0.32465627  0.07186150     0.11700
H440        H  0.15714439  0.46617684  0.01915383     0.11700
C441        C  0.93659504  0.25306667  0.05087178    -0.14400
C442        C  0.97725015  0.26229432  0.08110403     0.07700
C443        C  0.00887017  0.22237033  0.10497602    -0.14400
C444        C  0.99994254  0.17491122  0.09925077    -0.14400
C445        C  0.95931971  0.16607238  0.06911762     0.07700
C446        C  0.92788646  0.20566170  0.04498939    -0.14400
H447        H  0.91094716  0.28156402  0.03133342     0.11700
H448        H  0.04054182  0.22811470  0.12845807     0.11700
H449        H  0.02517132  0.14516071  0.11805901     0.11700
H450        H  0.89622715  0.20013496  0.02138707     0.11700
C451        C  0.89039128  0.16415086  0.47256641    -0.14400
C452        C  0.93965383  0.13380924  0.47560253     0.07700
C453        C  0.98354101  0.15444675  0.48397327    -0.14400
C454        C  0.97848839  0.20508820  0.48716981    -0.14400
C455        C  0.92932154  0.23570396  0.48288751     0.07700
C456        C  0.88517072  0.21472074  0.47671733    -0.14400
H457        H  0.85620339  0.14871082  0.46533429     0.11700
H458        H  0.02193755  0.13163938  0.48530084     0.11700
H459        H  0.01309473  0.22029689  0.49283062     0.11700
H460        H  0.84684562  0.23746165  0.47372967     0.11700
C461        C  0.11562053  0.03207508  0.43478418    -0.14400
C462        C  0.08067682  0.01372323  0.46448140     0.07700
C463        C  0.09936931  0.98719825  0.50649155    -0.14400
C464        C  0.15254767  0.97790752  0.51785942    -0.14400
C465        C  0.18764367  0.99620347  0.48808197     0.07700
C466        C  0.16850179  0.02394054  0.44678794    -0.14400
H467        H  0.10190312  0.05284891  0.40234169     0.11700
H468        H  0.07301088  0.97255628  0.52975890     0.11700
H469        H  0.16621328  0.95664067  0.55002123     0.11700
H470        H  0.19463789  0.03836616  0.42309593     0.11700
C471        C  0.95004674  0.04368837  0.31238370    -0.14400
C472        C  0.93297243  0.01325715  0.34687549     0.07700
C473        C  0.90216143  0.97995411  0.33090863    -0.14400
C474        C  0.89091274  0.97611001  0.28124593    -0.14400
C475        C  0.91010873  0.00555126  0.24709783     0.07700
C476        C  0.93854087  0.04020399  0.26356330    -0.14400
H477        H  0.97326953  0.07012075  0.32337997     0.11700
H478        H  0.88750479  0.95618209  0.35593605     0.11700
H479        H  0.86915953  0.94883523  0.26944400     0.11700
H480        H  0.95360114  0.06383514  0.23841579     0.11700
C481        C  0.44294115  0.95247638  0.02328807    -0.17500
C482        C  0.41370186  0.95532636  0.06373509    -0.32700
H483        H  0.44973895  0.98544832  0.00574741     0.11500
H484        H  0.40651201  0.92241739  0.08113332     0.12100
C485        C  0.43316997  0.75882384  0.01728678    -0.14400
C486        C  0.47503225  0.76759411  0.98928395     0.07700
C487        C  0.50412688  0.72811033  0.96369425    -0.14400
C488        C  0.49154139  0.68163987  0.96552258    -0.14400
C489        C  0.44968948  0.67328395  0.99337621     0.07700
C490        C  0.42079190  0.71241493  0.01924395    -0.14400
H491        H  0.40878327  0.78711306  0.03740282     0.11700
H492        H  0.53632267  0.73357130  0.94147266     0.11700
H493        H  0.51498623  0.65218885  0.94557922     0.11700
H494        H  0.38833836  0.70727571  0.04128017     0.11700
C495        C  0.61359371  0.92290778  0.01396287    -0.14400
C496        C  0.60852798  0.87748148  0.99438709     0.07700
C497        C  0.65355912  0.84272730  0.98511635    -0.14400
C498        C  0.70263668  0.85347024  0.99430754    -0.14400
C499        C  0.70780397  0.89876499  0.01399472     0.07700
C500        C  0.66286632  0.93324650  0.02430046    -0.14400
H501        H  0.57943608  0.95015486  0.02186366     0.11700
H502        H  0.65083307  0.80757868  0.96976348     0.11700
H503        H  0.73675589  0.82630618  0.98595553     0.11700
H504        H  0.66591894  0.96856233  0.03906282     0.11700
C505        C  0.46718237  0.94141321  0.85308532    -0.14400
C506        C  0.49220877  0.89419307  0.86659131     0.07700
C507        C  0.51221017  0.86077450  0.83027318    -0.14400
C508        C  0.50481005  0.87330914  0.78128697    -0.14400
C509        C  0.47677535  0.91951319  0.76739622     0.07700
C510        C  0.45921881  0.95390636  0.80386524    -0.14400
H511        H  0.45145661  0.96770316  0.88047034     0.11700
H512        H  0.53232240  0.82424587  0.83987994     0.11700
H513        H  0.51935521  0.84606983  0.75436012     0.11700
H514        H  0.43805311  0.99006903  0.79440785     0.11700
C515        C  0.90960771  0.45150139  0.01127879    -0.17500
C516        C  0.93818062  0.44838369  0.05284454    -0.32700
H517        H  0.90380190  0.41860240  0.99297335     0.11500
H518        H  0.94408287  0.48118409  0.07121991     0.12100
C519        C  0.83624680  0.55009691  0.81974082    -0.14400
C520        C  0.85561711  0.51619482  0.85660862     0.07700
C521        C  0.88195393  0.46954881  0.84330220    -0.14400
C522        C  0.89127411  0.45806057  0.79416725    -0.14400
C523        C  0.87380107  0.49280534  0.75723579     0.07700
C524        C  0.84490641  0.53849976  0.77078073    -0.14400
H525        H  0.81533465  0.58623946  0.82892166     0.11700
H526        H  0.89750336  0.44283650  0.87093757     0.11700
H527        H  0.91327723  0.42230736  0.78520111     0.11700
H528        H  0.83047142  0.56608773  0.74362518     0.11700
C529        C  0.71740990  0.49859707  0.95372851    -0.14400
C530        C  0.74338885  0.52157500  0.98875102     0.07700
C531        C  0.72168946  0.52992585  0.03510586    -0.14400
C532        C  0.67433771  0.51616804  0.04593656    -0.14400
C533        C  0.64728271  0.49487811  0.01021290     0.07700
C534        C  0.66961541  0.48593465  0.96412115    -0.14400
H535        H  0.73339209  0.49169941  0.91782122     0.11700
H536        H  0.74143222  0.54706371  0.06294143     0.11700
H537        H  0.65794600  0.52387403  0.08157370     0.11700
H538        H  0.64972744  0.46959056  0.93579016     0.11700
C539        C  0.84084919  0.67837724  0.96157485    -0.14400
C540        C  0.87063992  0.63792836  0.98620130     0.07700
C541        C  0.91180741  0.64615188  0.01647019    -0.14400
C542        C  0.92399430  0.69256200  0.02016947    -0.14400
C543        C  0.89545472  0.73232579  0.99406017     0.07700
C544        C  0.85328486  0.72484841  0.96510534    -0.14400
H545        H  0.80864590  0.67359480  0.93830804     0.11700
H546        H  0.93574764  0.61750740  0.03725912     0.11700
H547        H  0.95624531  0.69712589  0.04347357     0.11700
H548        H  0.82974747  0.75488859  0.94523547     0.11700
C549        C  0.43561472  0.48170124  0.53088497    -0.17500
C550        C  0.41285694  0.44224392  0.52924618    -0.32700
H551        H  0.44768254  0.49700401  0.49773941     0.11500
H552        H  0.40145261  0.42670154  0.56250100     0.12100
C553        C  0.60609880  0.54085648  0.57932200    -0.14400
C554        C  0.58281080  0.50804961  0.60601660     0.07700
C555        C  0.61389787  0.46405189  0.62254685    -0.14400
C556        C  0.66710555  0.45311396  0.61251663    -0.14400
C557        C  0.69056693  0.48664702  0.58709096     0.07700
C558        C  0.65960173  0.53072656  0.57080204    -0.14400
H559        H  0.58318532  0.57471418  0.56566435     0.11700
H560        H  0.59686900  0.43780218  0.64271923     0.11700
H561        H  0.69015059  0.41892063  0.62548157     0.11700
H562        H  0.67672691  0.55702575  0.55076723     0.11700
C563        C  0.44725079  0.46807958  0.73644807    -0.14400
C564        C  0.42513338  0.51174415  0.71222921     0.07700
C565        C  0.38434572  0.54394568  0.73509748    -0.14400
C566        C  0.37177285  0.53621272  0.78323946    -0.14400
C567        C  0.39891032  0.49575842  0.80874697     0.07700
C568        C  0.43508248  0.46069811  0.78464356    -0.14400
H569        H  0.47650789  0.44109098  0.71917039     0.11700
H570        H  0.36272773  0.57584558  0.71674445     0.11700
H571        H  0.34312899  0.56317632  0.80131505     0.11700
H572        H  0.45587312  0.42881129  0.80395025     0.11700
C573        C  0.39934868  0.66645897  0.57754587    -0.14400
C574        C  0.44847389  0.63820954  0.58806486     0.07700
C575        C  0.49133084  0.66103841  0.59258424    -0.14400
C576        C  0.48504622  0.71173373  0.58800386    -0.14400
C577        C  0.43558180  0.74058548  0.57906935     0.07700
C578        C  0.39296392  0.71721915  0.57265947    -0.14400
H579        H  0.36563287  0.64937112  0.57517458     0.11700
H580        H  0.52904781  0.64007757  0.60272885     0.11700
H581        H  0.51878019  0.72837817  0.59297763     0.11700
H582        H  0.35439263  0.73822366  0.56555431     0.11700
C583        C  0.90940178  0.93818960  0.53305653    -0.17500
C584        C  0.93921488  0.97236941  0.53068073    -0.32700
H585        H  0.88913505  0.92917057  0.50093648     0.11500
H586        H  0.95880872  0.98205006  0.56294854     0.12100
C587        C  0.86122655  0.75570266  0.57046651    -0.14400
C588        C  0.90580902  0.77604105  0.57603307     0.07700
C589        C  0.95492953  0.74603242  0.57199328    -0.14400
C590        C  0.95961662  0.69582568  0.56541956    -0.14400
C591        C  0.91519459  0.67456896  0.56354546     0.07700
C592        C  0.86584768  0.70519115  0.56459296    -0.14400
H593        H  0.82301679  0.77830676  0.57424462     0.11700
H594        H  0.98973466  0.76118379  0.57663360     0.11700
H595        H  0.99815867  0.67341115  0.56430053     0.11700
H596        H  0.83088035  0.68997395  0.56251578     0.11700
C597        C  0.91462369  0.85082662  0.74728314    -0.14400
C598        C  0.92916713  0.88364206  0.71360964     0.07700
C599        C  0.96002322  0.91667633  0.73004305    -0.14400
C600        C  0.97310958  0.91846182  0.77947593    -0.14400
C601        C  0.95563391  0.88732976  0.81304872     0.07700
C602        C  0.92778155  0.85247211  0.79604720    -0.14400
H603        H  0.89117368  0.82471367  0.73593080     0.11700
H604        H  0.97250229  0.94245552  0.70576588     0.11700
H605        H  0.99414202  0.94609761  0.79178920     0.11700
H606        H  0.91383349  0.82785646  0.82092754     0.11700
C607        C  0.73621356  0.88448574  0.64014376    -0.14400
C608        C  0.77027943  0.90029342  0.60753646     0.07700
C609        C  0.74989074  0.92893510  0.56730888    -0.14400
C610        C  0.69612324  0.94227120  0.56023560    -0.14400
C611        C  0.66198312  0.92608022  0.59263229     0.07700
C612        C  0.68256784  0.89679704  0.63247059    -0.14400
H613        H  0.75117531  0.86218087  0.67130969     0.11700
H614        H  0.77552944  0.94185533  0.54195634     0.11700
H615        H  0.68124370  0.96450950  0.52900401     0.11700
H616        H  0.65711538  0.88378163  0.65794633     0.11700
loop_ 
_geom_bond_atom_site_label_1 
_geom_bond_atom_site_label_2 
_geom_bond_distance 
_geom_bond_site_symmetry_2 
_ccdc_geom_bond_type 
C1            C2   1.543       .  S
C1            C7   1.528       .  S
C1            C5   1.538       .  S
C1          C598   1.522       .  S
C2            H9   1.080       .  S
C2            C3   1.377       .  D
C3            C4   1.540       .  S
C3          C583   1.485       .  S
C4            C8   1.537       .  S
C4            C6   1.534       .  S
C4           H10   1.111       .  S
C5           H11   1.087       .  S
C5            C6   1.362       .  D
C6          C608   1.479       .  S
C7           H12   1.087       .  S
C7            C8   1.358       .  D
C8          C588   1.472       .  S
C13          C14   1.529       .  S
C13          C19   1.535       .  S
C13          C17   1.546       .  S
C13         C564   1.525       .  S
C14          H21   1.084       .  S
C14          C15   1.372       .  D
C15          C16   1.544       .  S
C15         C549   1.488       .  S
C16          C20   1.538       .  S
C16          C18   1.541       .  S
C16          H22   1.111       .  S
C17          H23   1.086       .  S
C17          C18   1.368       .  D
C18         C554   1.490       .  S
C19          H24   1.084       .  S
C19          C20   1.357       .  D
C20         C574   1.471       .  S
C25          C26   1.540       .  S
C25          C31   1.532       .  S
C25          C29   1.542   1_556  S
C25         C540   1.529       .  S
C26          H33   1.086   1_556  S
C26          C27   1.370       .  D
C27          C28   1.544       .  S
C27         C530   1.486       .  S
C28          C32   1.546       .  S
C28          C30   1.543       .  S
C28          H34   1.111       .  S
C29          H35   1.076       .  S
C29          C30   1.367   1_554  D
C30         C515   1.490   1_556  S
C31          H36   1.087       .  S
C31          C32   1.361       .  D
C32         C520   1.492       .  S
C37          C38   1.540       .  S
C37          C43   1.527       .  S
C37          C41   1.544   1_556  S
C37         C486   1.526       .  S
C38          H45   1.086   1_556  S
C38          C39   1.371       .  D
C39          C40   1.542       .  S
C39         C496   1.486       .  S
C40          C44   1.544       .  S
C40          C42   1.542       .  S
C40          H46   1.111       .  S
C41          H47   1.077       .  S
C41          C42   1.367   1_554  D
C42         C481   1.488   1_556  S
C43          H48   1.087       .  S
C43          C44   1.359       .  D
C44         C506   1.483       .  S
C49          C50   1.541   1_655  S
C49          C55   1.527       .  S
C49          C53   1.541   1_545  S
C49         C472   1.520       .  S
C50          H57   1.087   1_545  S
C50          C51   1.363       .  D
C51          C52   1.534   1_455  S
C51         C462   1.480       .  S
C52          C56   1.539       .  S
C52          C54   1.541   1_545  S
C52          H58   1.111       .  S
C53          H59   1.080       .  S
C53          C54   1.377       .  D
C54         C584   1.486       .  S
C55          H60   1.087       .  S
C55          C56   1.356       .  D
C56         C452   1.470       .  S
C61          C62   1.544       .  S
C61          C67   1.528       .  S
C61          C65   1.535   1_655  S
C61         C442   1.523       .  S
C62          H69   1.078       .  S
C62          C63   1.367       .  D
C63          C64   1.543   1_655  S
C63         C516   1.487       .  S
C64          C68   1.552   1_455  S
C64          C66   1.547       .  S
C64          H70   1.111       .  S
C65          H71   1.086       .  S
C65          C66   1.367       .  D
C66         C432   1.489       .  S
C67          H72   1.087       .  S
C67          C68   1.361       .  D
C68         C422   1.491       .  S
C73          C74   1.542       .  S
C73          C79   1.528       .  S
C73          C77   1.534       .  S
C73         C392   1.526       .  S
C74          H81   1.077       .  S
C74          C75   1.367       .  D
C75          C76   1.542       .  S
C75         C482   1.490   1_545  S
C76          C80   1.551       .  S
C76          C78   1.544       .  S
C76          H82   1.111   1_545  S
C77          H83   1.086       .  S
C77          C78   1.367       .  D
C78         C415   1.485       .  S
C79          H84   1.087       .  S
C79          C80   1.364       .  D
C80         C402   1.491       .  S
C85          C86   1.541       .  S
C85          C91   1.528       .  S
C85          C89   1.542       .  S
C85         C372   1.519       .  S
C86          H93   1.087       .  S
C86          C87   1.362       .  D
C87          C88   1.536       .  S
C87         C362   1.483       .  S
C88          C92   1.539       .  S
C88          C90   1.544       .  S
C88          H94   1.111       .  S
C89          H95   1.080       .  S
C89          C90   1.375       .  D
C90         C550   1.485       .  S
C91          H96   1.087       .  S
C91          C92   1.356       .  D
C92         C382   1.473       .  S
Zr97         O98   2.441       .  S
Zr97         O99   2.430       .  S
Zr97        O100   2.411       .  S
Zr97        O103   2.414       .  S
Zr97        O105   2.380       .  S
Zr97        O106   2.374   1_556  S
Zr97        O107   2.402       .  S
Zr97        O108   2.397   1_556  S
O98         H154   0.990       .  S
O98         H162   0.991       .  S
O99         C119   1.284       .  A
O100        C121   1.282       .  A
O101       Zr111   2.457       .  S
O101        C120   1.289       .  A
O102       Zr110   2.448   1_655  S
O102        C121   1.287       .  A
O103        C120   1.282   1_556  A
O104       Zr112   2.421       .  S
O104        C119   1.283   1_554  A
O105       Zr110   2.404   1_655  S
O105       Zr112   2.376   1_556  S
O106       Zr111   2.387       .  S
O106       Zr112   2.374       .  S
O106        H141   0.966       .  S
O107       Zr110   2.407   1_655  S
O107       Zr127   2.388   1_565  S
O107        H144   0.965       .  S
O108       Zr111   2.392       .  S
O108       Zr127   2.393   1_564  S
Zr109       O134   2.446   1_655  S
Zr109       O128   2.427   1_565  S
Zr109       O136   2.399   1_565  S
Zr109       O124   2.401   1_665  S
Zr109       O115   2.391       .  S
Zr109       O116   2.393   1_655  S
Zr109       O117   2.369   1_565  S
Zr109       O118   2.376   1_565  S
Zr110       O129   2.436   1_565  S
Zr110       O122   2.435       .  S
Zr110       O123   2.471       .  S
Zr110       O116   2.392   1_556  S
Zr110       O117   2.386   1_466  S
Zr111       O113   2.435   1_565  S
Zr111       O135   2.438       .  S
Zr111       O137   2.447       .  S
Zr111       O115   2.397       .  S
Zr111       O118   2.391   1_565  S
Zr112       O138   2.435       .  S
Zr112       O139   2.434   1_655  S
Zr112       O114   2.436   1_655  S
Zr112       O115   2.392       .  S
Zr112       O116   2.391   1_655  S
O113        H150   0.990       .  S
O114        H145   0.990       .  S
O114        H159   0.990       .  S
O116        H142   0.967       .  S
O117       Zr127   2.377   1_554  S
O118       Zr127   2.377   1_554  S
O118        H143   0.966       .  S
C119        C543   1.481       .  S
C120        C499   1.478       .  S
C121        C601   1.476       .  S
O122        H158   0.990       .  S
O123        C125   1.291   1_556  A
O124        C125   1.279   1_545  A
C125        C412   1.477   1_565  S
O126       Zr127   2.439       .  S
O126        H155   0.990       .  S
Zr127       O130   2.438       .  S
Zr127       O131   2.441   1_556  S
Zr127       O132   2.411   1_556  S
O128        C133   1.284       .  A
O129        H146   0.990   1_545  S
O129        H161   0.990       .  S
O130        H147   0.991       .  S
O131        H151   0.990       .  S
O131        H160   0.989       .  S
O132        C133   1.280       .  A
C133        C445   1.477       .  S
O134        H153   0.990       .  S
O134        H157   0.990       .  S
O135        H149   0.990       .  S
O135        H156   0.990       .  S
O136        C140   1.281   1_545  A
O137        C140   1.287       .  A
O138        H148   0.990       .  S
O139        H152   0.990       .  S
C140        C475   1.477   1_565  S
Zr163       O164   2.443   1_655  S
Zr163       O165   2.455       .  S
Zr163       O166   2.430       .  S
Zr163       O169   2.435   1_655  S
Zr163       O171   2.382       .  S
Zr163       O172   2.374       .  S
Zr163       O173   2.417       .  S
Zr163       O174   2.406   1_655  S
O164        H220   0.991       .  S
O164        H228   0.990       .  S
O165        C185   1.288       .  A
O166        C187   1.283       .  A
O167       Zr177   2.439   1_455  S
O167        C186   1.286       .  A
O168       Zr176   2.427       .  S
O168        C187   1.284       .  A
O169        C186   1.285       .  A
O170       Zr178   2.429       .  S
O170        C185   1.283       .  A
O171       Zr176   2.404       .  S
O171       Zr178   2.377       .  S
O172       Zr177   2.393       .  S
O172       Zr178   2.376       .  S
O172        H207   0.965       .  S
O173       Zr176   2.406       .  S
O173       Zr193   2.386       .  S
O173        H210   0.965       .  S
O174       Zr177   2.386   1_455  S
O174       Zr193   2.400   1_455  S
Zr175       O200   2.443       .  S
Zr175       O194   2.463       .  S
Zr175       O202   2.438       .  S
Zr175       O190   2.441       .  S
Zr175       O181   2.401       .  S
Zr175       O182   2.417       .  S
Zr175       O183   2.375       .  S
Zr175       O184   2.388       .  S
Zr176       O195   2.437       .  S
Zr176       O188   2.434       .  S
Zr176       O189   2.446       .  S
Zr176       O182   2.396       .  S
Zr176       O183   2.396       .  S
Zr177       O179   2.436   1_655  S
Zr177       O201   2.439   1_655  S
Zr177       O203   2.422       .  S
Zr177       O181   2.389       .  S
Zr177       O184   2.401       .  S
Zr178       O204   2.435       .  S
Zr178       O205   2.435       .  S
Zr178       O180   2.437       .  S
Zr178       O181   2.392       .  S
Zr178       O182   2.401       .  S
O179        H216   0.990       .  S
O180        H211   0.990       .  S
O180        H225   0.990       .  S
O182        H208   0.966       .  S
O183       Zr193   2.381       .  S
O184       Zr193   2.384       .  S
O184        H209   0.966       .  S
C185        C425   1.497       .  S
C186        C365   1.484       .  S
C187        C455   1.472       .  S
O188        H224   0.990       .  S
O189        C191   1.286       .  A
O190        C191   1.284       .  A
C191        C557   1.481       .  S
O192       Zr193   2.439   1_455  S
O192        H221   0.990       .  S
Zr193       O196   2.437       .  S
Zr193       O197   2.439   1_655  S
Zr193       O198   2.424       .  S
O194        C199   1.289       .  A
O195        H212   0.990       .  S
O195        H227   0.990       .  S
O196        H213   0.990       .  S
O197        H217   0.990       .  S
O197        H226   0.990       .  S
O198        C199   1.282       .  A
C199        C523   1.497       .  S
O200        H219   0.991       .  S
O200        H223   0.990       .  S
O201        H215   0.990       .  S
O201        H222   0.990       .  S
O202        C206   1.285       .  A
O203        C206   1.284       .  A
O204        H214   0.990       .  S
O205        H218   0.990       .  S
C206        C591   1.480       .  S
Zr229       O230   2.444       .  S
Zr229       O231   2.448       .  S
Zr229       O232   2.428       .  S
Zr229       O235   2.418       .  S
Zr229       O237   2.382       .  S
Zr229       O238   2.378   1_556  S
Zr229       O239   2.411       .  S
Zr229       O240   2.401   1_556  S
O230        H286   0.990       .  S
O230        H294   0.991       .  S
O231        C251   1.286       .  A
O232        C253   1.282       .  A
O233       Zr243   2.460       .  S
O233        C252   1.289       .  A
O234       Zr242   2.435       .  S
O234        C253   1.283       .  A
O235        C252   1.281   1_556  A
O236       Zr244   2.398       .  S
O236        C251   1.278   1_554  A
O237       Zr242   2.409       .  S
O237       Zr244   2.382   1_556  S
O238       Zr243   2.390       .  S
O238       Zr244   2.382       .  S
O238        H273   0.966       .  S
O239       Zr242   2.414       .  S
O239       Zr259   2.385       .  S
O239        H276   0.965       .  S
O240       Zr243   2.391       .  S
O240       Zr259   2.397   1_554  S
Zr241       O266   2.444       .  S
Zr241       O260   2.420       .  S
Zr241       O268   2.397       .  S
Zr241       O256   2.410       .  S
Zr241       O247   2.392       .  S
Zr241       O248   2.393       .  S
Zr241       O249   2.365       .  S
Zr241       O250   2.381       .  S
Zr242       O261   2.436       .  S
Zr242       O254   2.435       .  S
Zr242       O255   2.470       .  S
Zr242       O248   2.393   1_556  S
Zr242       O249   2.386   1_556  S
Zr243       O245   2.436       .  S
Zr243       O267   2.438       .  S
Zr243       O269   2.447       .  S
Zr243       O247   2.396       .  S
Zr243       O250   2.393       .  S
Zr244       O270   2.436       .  S
Zr244       O271   2.435       .  S
Zr244       O246   2.436       .  S
Zr244       O247   2.386       .  S
Zr244       O248   2.388       .  S
O245        H282   0.990       .  S
O246        H277   0.990       .  S
O246        H291   0.990   1_554  S
O248        H274   0.966       .  S
O249       Zr259   2.374   1_554  S
O250       Zr259   2.374   1_554  S
O250        H275   0.966       .  S
C251        C489   1.480       .  S
C252        C533   1.485       .  S
C253        C567   1.460       .  S
O254        H290   0.990       .  S
O255        C257   1.291   1_556  A
O256        C257   1.281       .  A
C257        C435   1.482       .  S
O258       Zr259   2.440       .  S
O258        H287   0.990       .  S
Zr259       O262   2.437       .  S
Zr259       O263   2.441   1_556  S
Zr259       O264   2.423   1_556  S
O260        C265   1.282       .  A
O261        H278   0.990       .  S
O261        H293   0.990       .  S
O262        H279   0.990       .  S
O263        H283   0.990       .  S
O263        H292   0.989       .  S
O264        C265   1.283       .  A
C265        C395   1.480       .  S
O266        H285   0.990       .  S
O266        H289   0.990       .  S
O267        H281   0.990       .  S
O267        H288   0.990       .  S
O268        C272   1.280       .  A
O269        C272   1.287       .  A
O270        H280   0.990       .  S
O271        H284   0.990       .  S
C272        C375   1.475       .  S
Zr295       O296   2.443       .  S
Zr295       O297   2.457       .  S
Zr295       O298   2.443       .  S
Zr295       O301   2.429       .  S
Zr295       O303   2.379       .  S
Zr295       O304   2.378   1_545  S
Zr295       O305   2.413       .  S
Zr295       O306   2.409   1_545  S
O296        H352   0.991       .  S
O296        H360   0.990       .  S
O297        C317   1.289   1_545  A
O298        C319   1.285       .  A
O299       Zr309   2.434       .  S
O299        C318   1.285       .  A
O300       Zr308   2.431       .  S
O300        C319   1.284       .  A
O301        C318   1.284   1_545  A
O302       Zr310   2.415       .  S
O302        C317   1.280       .  A
O303       Zr308   2.403       .  S
O303       Zr310   2.382   1_545  S
O304       Zr309   2.395       .  S
O304       Zr310   2.378       .  S
O304        H339   0.966       .  S
O305       Zr308   2.403       .  S
O305       Zr325   2.385       .  S
O305        H342   0.965       .  S
O306       Zr309   2.388       .  S
O306       Zr325   2.398   1_565  S
Zr307       O332   2.442       .  S
Zr307       O326   2.443       .  S
Zr307       O334   2.434       .  S
Zr307       O322   2.440       .  S
Zr307       O313   2.396       .  S
Zr307       O314   2.411       .  S
Zr307       O315   2.373       .  S
Zr307       O316   2.384       .  S
Zr308       O327   2.435       .  S
Zr308       O320   2.436       .  S
Zr308       O321   2.430   1_545  S
Zr308       O314   2.402   1_545  S
Zr308       O315   2.397   1_545  S
Zr309       O311   2.435       .  S
Zr309       O333   2.438       .  S
Zr309       O335   2.430       .  S
Zr309       O313   2.388       .  S
Zr309       O316   2.397       .  S
Zr310       O336   2.434       .  S
Zr310       O337   2.435       .  S
Zr310       O312   2.436       .  S
Zr310       O313   2.385       .  S
Zr310       O314   2.395       .  S
O311        H348   0.990       .  S
O312        H343   0.990       .  S
O312        H357   0.990       .  S
O314        H340   0.964       .  S
O315       Zr325   2.381   1_565  S
O316       Zr325   2.381   1_565  S
O316        H341   0.966       .  S
C317        C405   1.491       .  S
C318        C465   1.481       .  S
C319        C385   1.478       .  S
O320        H356   0.990       .  S
O321        C323   1.284       .  A
O322        C323   1.284       .  A
C323        C611   1.477       .  S
O324       Zr325   2.440       .  S
O324        H353   0.990       .  S
Zr325       O328   2.438       .  S
Zr325       O329   2.440   1_545  S
Zr325       O330   2.418   1_545  S
O326        C331   1.285       .  A
O327        H344   0.990       .  S
O327        H359   0.990       .  S
O328        H345   0.990       .  S
O329        H349   0.990   1_565  S
O329        H358   0.989       .  S
O330        C331   1.280       .  A
C331        C509   1.486       .  S
O332        H351   0.990       .  S
O332        H355   0.991       .  S
O333        H347   0.990       .  S
O333        H354   0.990       .  S
O334        C338   1.286       .  A
O335        C338   1.285       .  A
O336        H346   0.990       .  S
O337        H350   0.990       .  S
C338        C577   1.483       .  S
C361        C362   1.403       .  A
C361        C366   1.401       .  A
C361        H367   1.083       .  S
C362        C363   1.405       .  A
C363        C364   1.401       .  A
C363        H368   1.083       .  S
C364        C365   1.407       .  A
C364        H369   1.083       .  S
C365        C366   1.406       .  A
C366        H370   1.083       .  S
C371        C372   1.409       .  A
C371        C376   1.404       .  A
C371        H377   1.079       .  S
C372        C373   1.406       .  A
C373        C374   1.384       .  A
C373        H378   1.084       .  S
C374        C375   1.402       .  A
C374        H379   1.083       .  S
C375        C376   1.406       .  A
C376        H380   1.083       .  S
C381        C382   1.404       .  A
C381        C386   1.396       .  A
C381        H387   1.083       .  S
C382        C383   1.400       .  A
C383        C384   1.398       .  A
C383        H388   1.084       .  S
C384        C385   1.408       .  A
C384        H389   1.083       .  S
C385        C386   1.404       .  A
C386        H390   1.083       .  S
C391        C392   1.409       .  A
C391        C396   1.397       .  A
C391        H397   1.083       .  S
C392        C393   1.410       .  A
C393        C394   1.394       .  A
C393        H398   1.075       .  S
C394        C395   1.403       .  A
C394        H399   1.083       .  S
C395        C396   1.405       .  A
C396        H400   1.083       .  S
C401        C402   1.408       .  A
C401        C406   1.398       .  A
C401        H407   1.083       .  S
C402        C403   1.403   1_545  A
C403        C404   1.405       .  A
C403        H408   1.083       .  S
C404        C405   1.413       .  A
C404        H409   1.083       .  S
C405        C406   1.404   1_565  A
C406        H410   1.083       .  S
C411        C412   1.405       .  A
C411        C416   1.394       .  A
C411        H417   1.084       .  S
C412        C413   1.405   1_545  A
C413        C414   1.406       .  A
C413        H418   1.083       .  S
C414        C415   1.407   1_565  A
C414        H419   1.083       .  S
C415        C416   1.403       .  A
C416        H420   1.083       .  S
C421        C422   1.402       .  A
C421        C426   1.406       .  A
C421        H427   1.083       .  S
C422        C423   1.408   1_655  A
C423        C424   1.401       .  A
C423        H428   1.083       .  S
C424        C425   1.406   1_455  A
C424        H429   1.083       .  S
C425        C426   1.413       .  A
C426        H430   1.083       .  S
C431        C432   1.407       .  A
C431        C436   1.407       .  A
C431        H437   1.083       .  S
C432        C433   1.404       .  A
C433        C434   1.396       .  A
C433        H438   1.083       .  S
C434        C435   1.405       .  A
C434        H439   1.084       .  S
C435        C436   1.406       .  A
C436        H440   1.083       .  S
C441        C442   1.408       .  A
C441        C446   1.393       .  A
C441        H447   1.076       .  S
C442        C443   1.410   1_655  A
C443        C444   1.396   1_455  A
C443        H448   1.083       .  S
C444        C445   1.403       .  A
C444        H449   1.083   1_655  S
C445        C446   1.405       .  A
C446        H450   1.083       .  S
C451        C452   1.404       .  A
C451        C456   1.395       .  A
C451        H457   1.083       .  S
C452        C453   1.399       .  A
C453        C454   1.395       .  A
C453        H458   1.084   1_655  S
C454        C455   1.407       .  A
C454        H459   1.083   1_655  S
C455        C456   1.403       .  A
C456        H460   1.083       .  S
C461        C462   1.403       .  A
C461        C466   1.398       .  A
C461        H467   1.083       .  S
C462        C463   1.403   1_545  A
C463        C464   1.401       .  A
C463        H468   1.083       .  S
C464        C465   1.406       .  A
C464        H469   1.083       .  S
C465        C466   1.406   1_565  A
C466        H470   1.083       .  S
C471        C472   1.405       .  A
C471        C476   1.384       .  A
C471        H477   1.084       .  S
C472        C473   1.411   1_545  A
C473        C474   1.406       .  A
C473        H478   1.079       .  S
C474        C475   1.406   1_565  A
C474        H479   1.083       .  S
C475        C476   1.402       .  A
C476        H480   1.083       .  S
C481        H483   1.083       .  S
C481        C482   1.355       .  D
C482        H484   1.083       .  S
C485        C486   1.409   1_554  A
C485        C490   1.394       .  A
C485        H491   1.076       .  S
C486        C487   1.410       .  A
C487        C488   1.397       .  A
C487        H492   1.083       .  S
C488        C489   1.403       .  A
C488        H493   1.083       .  S
C489        C490   1.405   1_556  A
C490        H494   1.083       .  S
C495        C496   1.407   1_554  A
C495        C500   1.403       .  A
C495        H501   1.083       .  S
C496        C497   1.404       .  A
C497        C498   1.397       .  A
C497        H502   1.083       .  S
C498        C499   1.405   1_556  A
C498        H503   1.084       .  S
C499        C500   1.404       .  A
C500        H504   1.083       .  S
C505        C506   1.400       .  A
C505        C510   1.403       .  A
C505        H511   1.083       .  S
C506        C507   1.406       .  A
C507        C508   1.396       .  A
C507        H512   1.083       .  S
C508        C509   1.405       .  A
C508        H513   1.083       .  S
C509        C510   1.411       .  A
C510        H514   1.083       .  S
C515        H517   1.083   1_554  S
C515        C516   1.355       .  D
C516        H518   1.083       .  S
C519        C520   1.407       .  A
C519        C524   1.400       .  A
C519        H525   1.083       .  S
C520        C521   1.403       .  A
C521        C522   1.407       .  A
C521        H526   1.083       .  S
C522        C523   1.413       .  A
C522        H527   1.083       .  S
C523        C524   1.406       .  A
C524        H528   1.083       .  S
C529        C530   1.401       .  A
C529        C534   1.399       .  A
C529        H535   1.083       .  S
C530        C531   1.407   1_556  A
C531        C532   1.404       .  A
C531        H536   1.083       .  S
C532        C533   1.405       .  A
C532        H537   1.083       .  S
C533        C534   1.409   1_554  A
C534        H538   1.083       .  S
C539        C540   1.410       .  A
C539        C544   1.398       .  A
C539        H545   1.083       .  S
C540        C541   1.411   1_556  A
C541        C542   1.394       .  A
C541        H546   1.075       .  S
C542        C543   1.404   1_554  A
C542        H547   1.083       .  S
C543        C544   1.404       .  A
C544        H548   1.083       .  S
C549        H551   1.083       .  S
C549        C550   1.349       .  D
C550        H552   1.082       .  S
C553        C554   1.404       .  A
C553        C558   1.401       .  A
C553        H559   1.081       .  S
C554        C555   1.407       .  A
C555        C556   1.402       .  A
C555        H560   1.083       .  S
C556        C557   1.404       .  A
C556        H561   1.083       .  S
C557        C558   1.406       .  A
C558        H562   1.083       .  S
C563        C564   1.406       .  A
C563        C568   1.394       .  A
C563        H569   1.083       .  S
C564        C565   1.415       .  A
C565        C566   1.397       .  A
C565        H570   1.079       .  S
C566        C567   1.395       .  A
C566        H571   1.083       .  S
C567        C568   1.401       .  A
C568        H572   1.084       .  S
C573        C574   1.402       .  A
C573        C578   1.398       .  A
C573        H579   1.083       .  S
C574        C575   1.399       .  A
C575        C576   1.396       .  A
C575        H580   1.081       .  S
C576        C577   1.408       .  A
C576        H581   1.083       .  S
C577        C578   1.407       .  A
C578        H582   1.083       .  S
C583        H585   1.082       .  S
C583        C584   1.345       .  D
C584        H586   1.083       .  S
C587        C588   1.401       .  A
C587        C592   1.400       .  A
C587        H593   1.084       .  S
C588        C589   1.402       .  A
C589        C590   1.394       .  A
C589        H594   1.083       .  S
C590        C591   1.405       .  A
C590        H595   1.083       .  S
C591        C592   1.408       .  A
C592        H596   1.083       .  S
C597        C598   1.407       .  A
C597        C602   1.387       .  A
C597        H603   1.084       .  S
C598        C599   1.410       .  A
C599        C600   1.405       .  A
C599        H604   1.079       .  S
C600        C601   1.406       .  A
C600        H605   1.083       .  S
C601        C602   1.401       .  A
C602        H606   1.084       .  S
C607        C608   1.403       .  A
C607        C612   1.397       .  A
C607        H613   1.083       .  S
C608        C609   1.403       .  A
C609        C610   1.399       .  A
C609        H614   1.083       .  S
C610        C611   1.406       .  A
C610        H615   1.083       .  S
C611        C612   1.405       .  A
C612        H616   1.083       .  S
