geometry optimzed in LAMMPS
_audit_creation_date              2020-12-01 
_audit_creation_method            'lammps2cif' 
_symmetry_space_group_name_H-M    'P1' 
_symmetry_Int_Tables_number       1 
_symmetry_cell_setting            triclinic 
loop_ 
_symmetry_equiv_pos_as_xyz 
  x,y,z 
_cell_length_a                    39.48034702 
_cell_length_b                    39.482763291720275 
_cell_length_c                    33.006722553832645 
_cell_angle_alpha                 90.31817008762495 
_cell_angle_beta                  90.32577824190982 
_cell_angle_gamma                 124.61051485148813 
loop_ 
_atom_site_label 
_atom_site_type_symbol 
_atom_site_fract_x 
_atom_site_fract_y 
_atom_site_fract_z 
_atom_site_charge 
C1          C  0.59729600  0.93884990  0.46112836     0.81500
N2          N  0.59746701  0.90453491  0.46168035    -0.76500
C3          C  0.59612374  0.88715327  0.99772562     0.83900
N4          N  0.59408351  0.90409445  0.03298257    -0.76800
C5          C  0.59385974  0.93835527  0.03211488     0.84000
N6          N  0.59528825  0.95538692  0.49623824    -0.78500
C7          C  0.32974286  0.94042785  0.46399905     0.81500
N8          N  0.34736588  0.95940230  0.99995345    -0.76800
C9          C  0.32875412  0.94078312  0.03524887     0.83900
N10         N  0.29288751  0.90288195  0.03463388    -0.76800
C11         C  0.27514613  0.88371634  0.99877280     0.84000
N12         N  0.29376482  0.90253377  0.46344330    -0.78500
O13         O  0.55174176  0.06084124  0.34965295    -0.78900
O14         O  0.60241241  0.11184156  0.20327242    -0.78900
O15         O  0.55010925  0.03166827  0.20345080    -0.78900
O16         O  0.61684968  0.17262016  0.29088754    -0.78800
O17         O  0.54527221  0.06036428  0.14757677    -0.79000
O18         O  0.60493834  0.11172665  0.29246804    -0.78900
O19         O  0.61396057  0.17252593  0.20765485    -0.78900
O20         O  0.55314581  0.03203098  0.29185145    -0.78900
C21         C  0.55772577  0.03656973  0.33083159     1.10800
C22         C  0.62493955  0.14963297  0.19583026     1.10700
C23         C  0.55208816  0.03591855  0.16444549     1.10800
C24         C  0.62814267  0.14949185  0.30048816     1.10700
O25         O  0.55725541  0.13448285  0.33903356    -0.78900
O26         O  0.48556475  0.06585472  0.18184695    -0.79000
O27         O  0.46855639  0.00918176  0.29037744    -0.78900
O28         O  0.53427544  0.15942526  0.21154930    -0.78900
O29         O  0.55096160  0.13374702  0.16269035    -0.78900
O30         O  0.48988409  0.06636962  0.32060940    -0.78900
O31         O  0.53750433  0.16018556  0.29344796    -0.78800
O32         O  0.46594710  0.00882688  0.21032274    -0.78900
Co33       Co  0.54607329  0.08669188  0.30437683     1.51500
Co34       Co  0.54268221  0.08636892  0.19487420     1.51700
Co35       Co  0.51316098  0.02993303  0.24915931     1.51600
Co36       Co  0.57275350  0.16130981  0.25082088     1.51500
O37         O  0.53543971  0.09674067  0.25026188    -1.40800
C38         C  0.54379047  0.15606437  0.32993564     1.10700
C39         C  0.45843097  0.02885403  0.18718338     1.10800
C40         C  0.46236616  0.02931635  0.31505137     1.10800
C41         C  0.53761376  0.15478107  0.17442271     1.10700
C42         C  0.51221120  0.25779925  0.46886331     0.81500
N43         N  0.50897815  0.29026678  0.46753467    -0.76800
C44         C  0.50471443  0.30603863  0.00258731     0.83900
N45         N  0.50400892  0.28921530  0.03877258    -0.76800
C46         C  0.50715710  0.25671014  0.03960980     0.84000
N47         N  0.51135121  0.24136856  0.50483565    -0.78500
C48         C  0.74790184  0.22144860  0.46347453     0.81500
N49         N  0.72790042  0.20465820  0.49886715    -0.76800
C50         C  0.74707090  0.22208621  0.03492299     0.83900
N51         N  0.78616618  0.25654574  0.03539414    -0.76800
C52         C  0.80626292  0.27357126  0.50006708     0.84000
N53         N  0.78688925  0.25594804  0.46419572    -0.78500
O54         O  0.06776846  0.62705838  0.31419054    -0.78900
O55         O  0.99970724  0.55159682  0.15916228    -0.78900
O56         O  0.12478811  0.64250383  0.20696741    -0.78900
O57         O  0.97461813  0.57696079  0.28572606    -0.78800
O58         O  0.06735999  0.61934312  0.17638118    -0.79000
O59         O  0.00090579  0.56193862  0.33546213    -0.78900
O60         O  0.97399683  0.57208659  0.20398741    -0.78900
O61         O  0.12527420  0.64665807  0.28695044    -0.78900
C62         C  0.10472075  0.65434616  0.30902820     1.10800
C63         C  0.97858509  0.56570813  0.16768897     1.10700
C64         C  0.10423103  0.64752344  0.18171232     1.10800
C65         C  0.97964619  0.57478882  0.32302837     1.10700
O66         O  0.02327748  0.50993935  0.29761599    -0.78900
O67         O  0.07372312  0.55761927  0.14926905    -0.79000
O68         O  0.10355731  0.56323040  0.29585689    -0.78900
O69         O  0.96203655  0.49308768  0.20865141    -0.78900
O70         O  0.02305008  0.50512671  0.20709347    -0.78900
O71         O  0.07543137  0.56980552  0.35117837    -0.78900
O72         O  0.96233200  0.49778173  0.29171503    -0.78800
O73         O  0.10310173  0.55832116  0.20757815    -0.78900
Co74       Co  0.04821108  0.56984162  0.30353552     1.51500
Co75       Co  0.04764038  0.56366044  0.19402313     1.51700
Co76       Co  0.10469254  0.59882164  0.24912003     1.51600
Co77       Co  0.97306786  0.53784572  0.24753709     1.51500
O78         O  0.03751886  0.57526564  0.24770938    -1.40800
C79         C  0.98534765  0.48734687  0.30466871     1.10700
C80         C  0.09891904  0.55331765  0.16862596     1.10800
C81         C  0.10055465  0.56357679  0.33491528     1.10800
C82         C  0.98516751  0.48165094  0.19957362     1.10700
C83         C  0.20917914  0.53676217  0.46875758     0.81500
N84         N  0.19109737  0.53230803  0.50477396    -0.76800
C85         C  0.20814377  0.53012628  0.03943781     0.83900
N86         N  0.24395857  0.53274132  0.03834541    -0.76800
C87         C  0.26241145  0.53715984  0.00215474     0.84000
N88         N  0.24493632  0.53931696  0.46733346    -0.78500
C89         C  0.90491051  0.36690927  0.46603732     0.81500
N90         N  0.92438048  0.38368120  0.50213688    -0.76800
C91         C  0.90598110  0.36442578  0.03739126     0.83900
N92         N  0.86788153  0.32870518  0.03651552    -0.76800
C93         C  0.84817394  0.31174388  0.50061830     0.84000
N94         N  0.86679998  0.33103105  0.46540422    -0.78500
C95         C  0.88415441  0.61222089  0.45915333     0.81500
N96         N  0.85222120  0.61620950  0.46078713    -0.76800
C97         C  0.83624509  0.61599501  0.49734460     0.83900
N98         N  0.85215632  0.61123379  0.03196787    -0.76800
C99         C  0.88403991  0.60716259  0.02984673     0.84000
N100        N  0.89970323  0.60759044  0.49353051    -0.78500
C101        C  0.18533710  0.78407930  0.46131028     0.81500
N102        N  0.21953662  0.82310456  0.46223862    -0.76800
C103        C  0.23720445  0.84199565  0.99819901     0.83900
N104        N  0.22062424  0.82140582  0.03338097    -0.76800
C105        C  0.18639395  0.78222449  0.03250197     0.84000
N106        N  0.16891303  0.76351772  0.99640750    -0.78500
O107        O  0.55786994  0.55839092  0.16465971    -0.78900
O108        O  0.48092006  0.56428611  0.29541819    -0.78900
O109        O  0.57110725  0.51578926  0.27628027    -0.78900
O110        O  0.48327784  0.56787959  0.21700653    -0.78800
O111        O  0.52030577  0.52051414  0.29650720    -0.79000
O112        O  0.52096367  0.59834354  0.16367580    -0.78900
O113        O  0.47970261  0.61675092  0.27366874    -0.78900
O114        O  0.52525661  0.52180672  0.21791081    -0.78900
C115        C  0.53170542  0.52397971  0.18031640     1.10800
C116        C  0.46572055  0.58589687  0.29666790     1.10700
C117        C  0.54007180  0.50336710  0.29862235     1.10800
C118        C  0.48610380  0.57356458  0.17925920     1.10700
O119        O  0.59555568  0.67288366  0.19277726    -0.78900
O120        O  0.59075631  0.59314239  0.33513102    -0.79000
O121        O  0.61414456  0.56909829  0.21034820    -0.78900
O122        O  0.56313744  0.66822987  0.28098243    -0.78900
O123        O  0.55504968  0.63302242  0.33398397    -0.78900
O124        O  0.63350308  0.63148569  0.19414689    -0.78900
O125        O  0.53397687  0.65655468  0.20790223    -0.78800
O126        O  0.62587480  0.59897570  0.28288084    -0.78900
Co127      Co  0.57672989  0.61510345  0.18368983     1.51500
Co128      Co  0.53964988  0.58046255  0.30730444     1.51700
Co129      Co  0.57389178  0.56126523  0.25271625     1.51600
Co130      Co  0.52389679  0.61635634  0.25132407     1.51500
O131        O  0.56583221  0.60521840  0.24565481    -1.40800
C132        C  0.56868093  0.68071364  0.19145656     1.10700
C133        C  0.62426537  0.60311681  0.32015001     1.10800
C134        C  0.63967481  0.60340836  0.19379733     1.10800
C135        C  0.56678958  0.66682018  0.31838029     1.10700
C136        C  0.49833096  0.39302836  0.03381671     0.81500
N137        N  0.49964985  0.35933206  0.03582568    -0.76800
C138        C  0.50212205  0.34185603  0.50117747     0.83900
N139        N  0.50349166  0.35842852  0.46478318    -0.76800
C140        C  0.50221295  0.39193797  0.46267747     0.84000
N141        N  0.49983397  0.40933952  0.99717961    -0.78500
C142        C  0.35614865  0.54211551  0.03221407     0.81500
N143        N  0.37382138  0.54714703  0.99552885    -0.76800
C144        C  0.35540400  0.54868946  0.46138996     0.83900
N145        N  0.31940861  0.54536809  0.46391572    -0.76800
C146        C  0.30145472  0.54039157  0.50037112     0.84000
N147        N  0.31996555  0.53883682  0.03464648    -0.78500
C148        C  0.75242476  0.62132305  0.03856823     0.81500
N149        N  0.78526649  0.61892787  0.03613245    -0.76800
C150        C  0.80109836  0.61953199  0.49948807     0.83900
N151        N  0.78361521  0.62235755  0.46508148    -0.76800
C152        C  0.75065406  0.62477554  0.46747584     0.84000
N153        N  0.73506613  0.62409687  0.00425537    -0.78500
C154        C  0.59156848  0.79685780  0.03647281     0.81500
N155        N  0.59303949  0.83198009  0.03497929    -0.76800
C156        C  0.59533553  0.84936822  0.49875909     0.83900
N157        N  0.59603399  0.83118490  0.46382535    -0.76800
C158        C  0.59460655  0.79595276  0.46529251     0.84000
N159        N  0.59225956  0.77885393  0.00164216    -0.78500
C160        C  0.37410338  0.55437796  0.42253953    -0.17200
C161        C  0.39012235  0.55975386  0.39000789     0.06800
C162        C  0.41128083  0.56713344  0.35320705     0.08700
C163        C  0.43331325  0.57479801  0.32457915    -0.18100
C164        C  0.37658822  0.54136427  0.06834100    -0.17200
C165        C  0.39659293  0.54268828  0.09704655     0.06800
C166        C  0.42350920  0.54754873  0.12884165     0.08700
C167        C  0.44992595  0.55605405  0.15377747    -0.18100
C168        C  0.58096617  0.70230124  0.34398192    -0.17200
C169        C  0.58818108  0.72859174  0.36848356     0.06800
C170        C  0.59274581  0.75568121  0.39985796     0.08700
C171        C  0.59444673  0.77578844  0.42860071    -0.18100
C172        C  0.58847524  0.77822550  0.07481591    -0.17200
C173        C  0.58520947  0.76079355  0.10597806     0.06800
C174        C  0.58051515  0.73732275  0.14034935     0.08700
C175        C  0.57563808  0.71372795  0.16648017    -0.18100
C176        C  0.65905499  0.61588991  0.34630083    -0.17200
C177        C  0.68475405  0.62211238  0.37109771     0.06800
C178        C  0.71121020  0.62558621  0.40261682     0.08700
C179        C  0.73085873  0.62621980  0.43125352    -0.18100
C180        C  0.67235624  0.60865996  0.16955500    -0.17200
C181        C  0.69566071  0.61272504  0.14351460     0.06800
C182        C  0.71849163  0.61679107  0.10886802     0.08700
C183        C  0.73507739  0.61942275  0.07732882    -0.18100
C184        C  0.50549590  0.41007527  0.42399489    -0.17200
C185        C  0.51014880  0.42631084  0.39170775     0.06800
C186        C  0.51791758  0.44805097  0.35520893     0.08700
C187        C  0.52675153  0.47053177  0.32670962    -0.18100
C188        C  0.51344033  0.48740328  0.15523421    -0.17200
C189        C  0.50443869  0.46057329  0.13059431     0.06800
C190        C  0.49908927  0.43319847  0.09901714     0.08700
C191        C  0.49751197  0.41304448  0.07029848    -0.18100
C192        C  0.95885370  0.57420176  0.13674108    -0.17200
C193        C  0.94028406  0.58245092  0.11445417     0.06800
C194        C  0.91807380  0.59231548  0.08931860     0.08700
C195        C  0.90052290  0.60000473  0.06499897    -0.18100
C196        C  0.96000525  0.58618098  0.35072922    -0.17200
C197        C  0.94122109  0.59534524  0.37118894     0.06800
C198        C  0.91849849  0.60449245  0.39595221     0.08700
C199        C  0.90055637  0.60989555  0.42164767    -0.18100
C200        C  0.92549158  0.38303130  0.07584815    -0.17200
C201        C  0.94017150  0.39980435  0.10818483     0.06800
C202        C  0.95630013  0.42266236  0.14483715     0.08700
C203        C  0.96967216  0.44661778  0.17310207    -0.18100
C204        C  0.96935422  0.45428299  0.33345875    -0.17200
C205        C  0.95540895  0.43087976  0.36181723     0.06800
C206        C  0.93857899  0.40689315  0.39743842     0.08700
C207        C  0.92368809  0.38814806  0.42858568    -0.18100
C208        C  0.18880655  0.52770377  0.07687211    -0.17200
C209        C  0.16847583  0.52859622  0.10333482     0.06800
C210        C  0.14285733  0.53330867  0.12878665     0.08700
C211        C  0.12159731  0.54059604  0.14756048    -0.18100
C212        C  0.12423040  0.55431641  0.35981975    -0.17200
C213        C  0.14574178  0.54872099  0.38078672     0.06800
C214        C  0.17094473  0.54375929  0.40717168     0.08700
C215        C  0.19054837  0.54027940  0.43295285    -0.18100
C216        C  0.12337696  0.68347990  0.15671074    -0.17200
C217        C  0.13866419  0.71034290  0.13170192     0.06800
C218        C  0.15578827  0.73830702  0.09914998     0.08700
C219        C  0.16992499  0.75960430  0.06949068    -0.18100
C220        C  0.12398965  0.69189457  0.33192197    -0.17200
C221        C  0.13874434  0.71870678  0.35734978     0.06800
C222        C  0.15473433  0.74474090  0.39173757     0.08700
C223        C  0.16823963  0.76368824  0.42313103    -0.18100
C224        C  0.72530225  0.20538901  0.07257051    -0.17200
C225        C  0.70631415  0.19244170  0.10387753     0.06800
C226        C  0.68210473  0.17781036  0.13953184     0.08700
C227        C  0.65845484  0.16523682  0.16767588    -0.18100
C228        C  0.66255353  0.16463219  0.32778297    -0.17200
C229        C  0.68619105  0.17686789  0.35628453     0.06800
C230        C  0.70940513  0.19118568  0.39290402     0.08700
C231        C  0.72722146  0.20414284  0.42511640    -0.18100
C232        C  0.50836651  0.23895757  0.07664971    -0.17200
C233        C  0.51235175  0.21951879  0.10174916     0.06800
C234        C  0.51969571  0.19506031  0.12589979     0.08700
C235        C  0.52749152  0.17511055  0.14623189    -0.18100
C236        C  0.53681842  0.17751841  0.36040034    -0.17200
C237        C  0.53076278  0.19783262  0.38272449     0.06800
C238        C  0.52369893  0.22201266  0.40833487     0.08700
C239        C  0.51799280  0.24079031  0.43314497    -0.18100
C240        C  0.34866248  0.95967347  0.07321116    -0.17200
C241        C  0.36781182  0.97491488  0.10425781     0.06800
C242        C  0.39425720  0.99285250  0.13825754     0.08700
C243        C  0.42116560  0.00885366  0.16363263    -0.18100
C244        C  0.35091150  0.95906092  0.42680678    -0.17200
C245        C  0.37140528  0.97466752  0.39690730     0.06800
C246        C  0.39899634  0.99319000  0.36424076     0.08700
C247        C  0.42597858  0.00942053  0.33941445    -0.18100
C248        C  0.56504567  0.01480844  0.14048037    -0.17200
C249        C  0.57426546  0.99577460  0.12014196     0.06800
C250        C  0.58323612  0.97334305  0.09414389     0.08700
C251        C  0.58919883  0.95562097  0.06830802    -0.18100
C252        C  0.59582062  0.95649511  0.42391183    -0.17200
C253        C  0.59130631  0.97457002  0.39750171     0.06800
C254        C  0.58256890  0.99712809  0.37174223     0.08700
C255        C  0.57250045  0.01595391  0.35250578    -0.18100
C256        C  0.59729875  0.93885169  0.96112900     0.81500
N257        N  0.59746941  0.90453657  0.96168114    -0.76500
C258        C  0.59612124  0.88715136  0.49772491     0.83900
N259        N  0.59408073  0.90409214  0.53298174    -0.76800
C260        C  0.59385653  0.93835293  0.53211430     0.84000
N261        N  0.59529140  0.95538900  0.99623888    -0.78500
C262        C  0.32974308  0.94042843  0.96399876     0.81500
N263        N  0.34736573  0.95940153  0.49995373    -0.76800
C264        C  0.32875409  0.94078221  0.53524909     0.83900
N265        N  0.29288746  0.90288125  0.53463397    -0.76800
C266        C  0.27514599  0.88371592  0.49877298     0.84000
N267        N  0.29376507  0.90253406  0.96344326    -0.78500
O268        O  0.55174166  0.06084086  0.84965333    -0.78900
O269        O  0.60241317  0.11184168  0.70327277    -0.78900
O270        O  0.55010981  0.03166820  0.70345158    -0.78900
O271        O  0.61684975  0.17261978  0.79088798    -0.78800
O272        O  0.54527293  0.06036406  0.64757709    -0.79000
O273        O  0.60493850  0.11172616  0.79246844    -0.78900
O274        O  0.61396087  0.17252602  0.70765536    -0.78900
O275        O  0.55314635  0.03203073  0.79185186    -0.78900
C276        C  0.55772605  0.03656958  0.83083203     1.10800
C277        C  0.62494016  0.14963317  0.69583081     1.10700
C278        C  0.55208869  0.03591830  0.66444609     1.10800
C279        C  0.62814271  0.14949138  0.80048869     1.10700
O280        O  0.55725531  0.13448233  0.83903389    -0.78900
O281        O  0.48556510  0.06585435  0.68184714    -0.79000
O282        O  0.46855656  0.00918140  0.79037741    -0.78900
O283        O  0.53427589  0.15942499  0.71154945    -0.78900
O284        O  0.55096208  0.13374703  0.66269072    -0.78900
O285        O  0.48988413  0.06636923  0.82060910    -0.78900
O286        O  0.53750425  0.16018516  0.79344819    -0.78800
O287        O  0.46594764  0.00882649  0.71032267    -0.78900
Co288      Co  0.54607319  0.08669156  0.80437698     1.51500
Co289      Co  0.54268263  0.08636866  0.69487463     1.51700
Co290      Co  0.51316156  0.02993284  0.74915958     1.51600
Co291      Co  0.57275361  0.16130952  0.75082121     1.51500
O292        O  0.53544006  0.09674033  0.75026190    -1.40800
C293        C  0.54379024  0.15606373  0.82993590     1.10700
C294        C  0.45843151  0.02885363  0.68718338     1.10800
C295        C  0.46236616  0.02931596  0.81505117     1.10800
C296        C  0.53761402  0.15478076  0.67442290     1.10700
C297        C  0.51221101  0.25779886  0.96886325     0.81500
N298        N  0.50897796  0.29026648  0.96753438    -0.76800
C299        C  0.50471411  0.30603835  0.50258774     0.83900
N300        N  0.50400829  0.28921452  0.53877281    -0.76800
C301        C  0.50715650  0.25670946  0.53960988     0.84000
N302        N  0.51135127  0.24136858  0.00483564    -0.78500
C303        C  0.74790226  0.22144806  0.96347451     0.81500
N304        N  0.72790071  0.20465767  0.99886710    -0.76800
C305        C  0.74707096  0.22208680  0.53492305     0.83900
N306        N  0.78616637  0.25654614  0.53539405    -0.76800
C307        C  0.80626305  0.27357089  0.00006715     0.84000
N308        N  0.78688972  0.25594772  0.96419577    -0.78500
O309        O  0.06776740  0.62705793  0.81419009    -0.78900
O310        O  0.99970712  0.55159676  0.65916190    -0.78900
O311        O  0.12478779  0.64250407  0.70696807    -0.78900
O312        O  0.97461712  0.57695930  0.78572581    -0.78800
O313        O  0.06735955  0.61934305  0.67638117    -0.79000
O314        O  0.00090524  0.56193786  0.83546175    -0.78900
O315        O  0.97399596  0.57208581  0.70398738    -0.78900
O316        O  0.12527339  0.64665752  0.78695121    -0.78900
C317        C  0.10471977  0.65434567  0.80902841     1.10800
C318        C  0.97858476  0.56570790  0.66768879     1.10700
C319        C  0.10423066  0.64752352  0.68171267     1.10800
C320        C  0.97964528  0.57478756  0.82302802     1.10700
O321        O  0.02327696  0.50993892  0.79761582    -0.78900
O322        O  0.07372365  0.55761961  0.64926882    -0.79000
O323        O  0.10355680  0.56322999  0.79585661    -0.78900
O324        O  0.96203639  0.49308719  0.70865073    -0.78900
O325        O  0.02305047  0.50512678  0.70709311    -0.78900
O326        O  0.07543095  0.56980569  0.85117837    -0.78900
O327        O  0.96233150  0.49778088  0.79171443    -0.78800
O328        O  0.10310201  0.55832147  0.70757806    -0.78900
Co329      Co  0.04821070  0.56984155  0.80353539     1.51500
Co330      Co  0.04764038  0.56366038  0.69402292     1.51700
Co331      Co  0.10469227  0.59882155  0.74912015     1.51600
Co332      Co  0.97306731  0.53784473  0.74753644     1.51500
O333        O  0.03751838  0.57526515  0.74770908    -1.40800
C334        C  0.98534728  0.48734625  0.80466848     1.10700
C335        C  0.09891960  0.55331813  0.66862577     1.10800
C336        C  0.10055409  0.56357659  0.83491512     1.10800
C337        C  0.98516784  0.48165089  0.69957320     1.10700
C338        C  0.20917836  0.53676183  0.96875742     0.81500
N339        N  0.19109638  0.53230736  0.00477391    -0.76800
C340        C  0.20814461  0.53012686  0.53943785     0.83900
N341        N  0.24395925  0.53274140  0.53834534    -0.76800
C342        C  0.26241203  0.53715980  0.50215487     0.84000
N343        N  0.24493552  0.53931664  0.96733318    -0.78500
C344        C  0.90491064  0.36690981  0.96603791     0.81500
N345        N  0.92438031  0.38368169  0.00213734    -0.76800
C346        C  0.90598130  0.36442555  0.53739079     0.83900
N347        N  0.86788173  0.32870521  0.53651526    -0.76800
C348        C  0.84817402  0.31174400  0.00061877     0.84000
N349        N  0.86680021  0.33103143  0.96540487    -0.78500
C350        C  0.88415191  0.61221725  0.95915298     0.81500
N351        N  0.85221898  0.61620611  0.96078718    -0.76800
C352        C  0.83624299  0.61599180  0.99734448     0.83900
N353        N  0.85215867  0.61123738  0.53196795    -0.76800
C354        C  0.88404248  0.60716643  0.52984712     0.84000
N355        N  0.89970040  0.60758638  0.99353010    -0.78500
C356        C  0.18533678  0.78407970  0.96131012     0.81500
N357        N  0.21953640  0.82310483  0.96223833    -0.76800
C358        C  0.23720453  0.84199547  0.49819900     0.83900
N359        N  0.22062406  0.82140559  0.53338097    -0.76800
C360        C  0.18639392  0.78222410  0.53250202     0.84000
N361        N  0.16891313  0.76351716  0.49640762    -0.78500
O362        O  0.55787030  0.55839203  0.66466001    -0.78900
O363        O  0.48092055  0.56428614  0.79541913    -0.78900
O364        O  0.57110837  0.51579057  0.77627980    -0.78900
O365        O  0.48327805  0.56787969  0.71700722    -0.78800
O366        O  0.52030684  0.52051497  0.79650717    -0.79000
O367        O  0.52096367  0.59834430  0.66367640    -0.78900
O368        O  0.47970240  0.61675073  0.77366997    -0.78900
O369        O  0.52525738  0.52180772  0.71791121    -0.78900
C370        C  0.53170603  0.52398084  0.68031675     1.10800
C371        C  0.46572062  0.58589659  0.79666876     1.10700
C372        C  0.54007291  0.50336794  0.79862197     1.10800
C373        C  0.48610385  0.57356477  0.67925982     1.10700
O374        O  0.59555510  0.67288441  0.69277789    -0.78900
O375        O  0.59075697  0.59314290  0.83513125    -0.79000
O376        O  0.61414574  0.56910029  0.71034796    -0.78900
O377        O  0.56313709  0.66823024  0.78098316    -0.78900
O378        O  0.55505019  0.63302258  0.83398482    -0.78900
O379        O  0.63350349  0.63148708  0.69414700    -0.78900
O380        O  0.53397557  0.65655459  0.70790332    -0.78800
O381        O  0.62587562  0.59897684  0.78288085    -0.78900
Co382      Co  0.57673016  0.61510462  0.68369022     1.51500
Co383      Co  0.53965054  0.58046327  0.80730482     1.51700
Co384      Co  0.57389248  0.56126637  0.75271622     1.51600
Co385      Co  0.52389692  0.61635678  0.75132464     1.51500
O386        O  0.56583278  0.60521908  0.74565515    -1.40800
C387        C  0.56867980  0.68071385  0.69145737     1.10700
C388        C  0.62426610  0.60311748  0.82015012     1.10800
C389        C  0.63967564  0.60341020  0.69379708     1.10800
C390        C  0.56678966  0.66682039  0.81838106     1.10700
C391        C  0.49833124  0.39302831  0.53381772     0.81500
N392        N  0.49964971  0.35933186  0.53582655    -0.76800
C393        C  0.50212240  0.34185634  0.00117687     0.83900
N394        N  0.50349223  0.35842887  0.96478261    -0.76800
C395        C  0.50221327  0.39193819  0.96267657     0.84000
N396        N  0.49983385  0.40933932  0.49718074    -0.78500
C397        C  0.35614938  0.54211504  0.53221390     0.81500
N398        N  0.37382223  0.54714693  0.49552867    -0.76800
C399        C  0.35540335  0.54868953  0.96139017     0.83900
N400        N  0.31940813  0.54536806  0.96391583    -0.76800
C401        C  0.30145409  0.54039170  0.00037116     0.84000
N402        N  0.31996624  0.53883642  0.53464630    -0.78500
C403        C  0.75242568  0.62132503  0.53856762     0.81500
N404        N  0.78526791  0.61893064  0.53613211    -0.76800
C405        C  0.80109682  0.61952959  0.99948853     0.83900
N406        N  0.78361369  0.62235561  0.96508204    -0.76800
C407        C  0.75065316  0.62477431  0.96747657     0.84000
N408        N  0.73506672  0.62409802  0.50425476    -0.78500
C409        C  0.59156647  0.79685632  0.53647216     0.81500
N410        N  0.59303734  0.83197856  0.53497868    -0.76800
C411        C  0.59533769  0.84936994  0.99876010     0.83900
N412        N  0.59603603  0.83118652  0.96382618    -0.76800
C413        C  0.59460859  0.79595439  0.96529337     0.84000
N414        N  0.59225771  0.77885250  0.50164149    -0.78500
C415        C  0.37410265  0.55437769  0.92253990    -0.17200
C416        C  0.39012162  0.55975331  0.89000827     0.06800
C417        C  0.41128055  0.56713286  0.85320740     0.08700
C418        C  0.43331324  0.57479776  0.82457964    -0.18100
C419        C  0.37658869  0.54136369  0.56834088    -0.17200
C420        C  0.39659324  0.54268768  0.59704651     0.06800
C421        C  0.42350918  0.54754809  0.62884185     0.08700
C422        C  0.44992587  0.55605377  0.65377795    -0.18100
C423        C  0.58096679  0.70230182  0.84398259    -0.17200
C424        C  0.58818198  0.72859250  0.86848423     0.06800
C425        C  0.59274706  0.75568220  0.89985870     0.08700
C426        C  0.59444846  0.77578996  0.92860123    -0.18100
C427        C  0.58847330  0.77822420  0.57481560    -0.17200
C428        C  0.58520759  0.76079229  0.60597769     0.06800
C429        C  0.58051361  0.73732226  0.64034921     0.08700
C430        C  0.57563687  0.71372802  0.66648046    -0.18100
C431        C  0.65905575  0.61589039  0.84630083    -0.17200
C432        C  0.68475442  0.62211270  0.87109816     0.06800
C433        C  0.71121008  0.62558608  0.90261766     0.08700
C434        C  0.73085806  0.62621901  0.93125445    -0.18100
C435        C  0.67235673  0.60866193  0.66955425    -0.17200
C436        C  0.69566121  0.61272723  0.64351370     0.06800
C437        C  0.71849220  0.61679315  0.60886699     0.08700
C438        C  0.73507814  0.61942483  0.57732796    -0.18100
C439        C  0.50549660  0.41007544  0.92399390    -0.17200
C440        C  0.51014962  0.42631109  0.89170684     0.06800
C441        C  0.51791870  0.44805124  0.85520814     0.08700
C442        C  0.52675262  0.47053219  0.82670896    -0.18100
C443        C  0.51344152  0.48740462  0.65523447    -0.17200
C444        C  0.50443979  0.46057431  0.63059485     0.06800
C445        C  0.49908998  0.43319892  0.59901779     0.08700
C446        C  0.49751241  0.41304455  0.57029933    -0.18100
C447        C  0.95885417  0.57420238  0.63674069    -0.17200
C448        C  0.94028512  0.58245256  0.61445403     0.06800
C449        C  0.91807555  0.59231822  0.58931866     0.08700
C450        C  0.90052510  0.60000826  0.56499926    -0.18100
C451        C  0.96000385  0.58617923  0.85072861    -0.17200
C452        C  0.94121928  0.59534287  0.87118846     0.06800
C453        C  0.91849629  0.60448950  0.89595181     0.08700
C454        C  0.90055395  0.60989231  0.92164728    -0.18100
C455        C  0.92549221  0.38303128  0.57584734    -0.17200
C456        C  0.94017220  0.39980422  0.60818403     0.06800
C457        C  0.95630096  0.42266240  0.64483660     0.08700
C458        C  0.96967291  0.44661779  0.67310170    -0.18100
C459        C  0.96935473  0.45428289  0.83345902    -0.17200
C460        C  0.95540923  0.43087999  0.86181766     0.06800
C461        C  0.93857899  0.40689348  0.89743880     0.08700
C462        C  0.92368821  0.38814858  0.92858620    -0.18100
C463        C  0.18880750  0.52770468  0.57687231    -0.17200
C464        C  0.16847666  0.52859712  0.60333494     0.06800
C465        C  0.14285819  0.53330966  0.62878639     0.08700
C466        C  0.12159813  0.54059695  0.64756005    -0.18100
C467        C  0.12422961  0.55431586  0.85981966    -0.17200
C468        C  0.14574092  0.54872048  0.88078685     0.06800
C469        C  0.17094381  0.54375862  0.90717154     0.08700
C470        C  0.19054740  0.54027873  0.93295267    -0.18100
C471        C  0.12337679  0.68348018  0.65671114    -0.17200
C472        C  0.13866421  0.71034334  0.63170259     0.06800
C473        C  0.15578796  0.73830694  0.59915047     0.08700
C474        C  0.16992477  0.75960399  0.56949109    -0.18100
C475        C  0.12398880  0.69189402  0.83192229    -0.17200
C476        C  0.13874331  0.71870646  0.85734991     0.06800
C477        C  0.15473342  0.74474095  0.89173757     0.08700
C478        C  0.16823933  0.76368879  0.92313072    -0.18100
C479        C  0.72530245  0.20538952  0.57257074    -0.17200
C480        C  0.70631446  0.19244197  0.60387785     0.06800
C481        C  0.68210523  0.17781063  0.63953226     0.08700
C482        C  0.65845530  0.16523691  0.66767626    -0.18100
C483        C  0.66255367  0.16463160  0.82778322    -0.17200
C484        C  0.68619144  0.17686748  0.85628453     0.06800
C485        C  0.70940559  0.19118498  0.89290397     0.08700
C486        C  0.72722199  0.20414217  0.92511636    -0.18100
C487        C  0.50836560  0.23895630  0.57664948    -0.17200
C488        C  0.51235110  0.21951764  0.60174893     0.06800
C489        C  0.51969530  0.19505930  0.62589976     0.08700
C490        C  0.52749157  0.17510982  0.64623185    -0.18100
C491        C  0.53681772  0.17751742  0.86040059    -0.17200
C492        C  0.53076178  0.19783138  0.88272482     0.06800
C493        C  0.52369777  0.22201137  0.90833515     0.08700
C494        C  0.51799221  0.24078943  0.93314522    -0.18100
C495        C  0.34866293  0.95967262  0.57321107    -0.17200
C496        C  0.36781240  0.97491411  0.60425771     0.06800
C497        C  0.39425786  0.99285195  0.63825759     0.08700
C498        C  0.42116641  0.00885314  0.66363249    -0.18100
C499        C  0.35091174  0.95906133  0.92680661    -0.17200
C500        C  0.37140545  0.97466764  0.89690711     0.06800
C501        C  0.39899628  0.99318970  0.86424065     0.08700
C502        C  0.42597850  0.00941999  0.83941433    -0.18100
C503        C  0.56504522  0.01480747  0.64048049    -0.17200
C504        C  0.57426400  0.99577285  0.62014200     0.06800
C505        C  0.58323352  0.97334088  0.59414364     0.08700
C506        C  0.58919586  0.95561878  0.56830747    -0.18100
C507        C  0.59582286  0.95649678  0.92391270    -0.17200
C508        C  0.59130819  0.97457138  0.89750239     0.06800
C509        C  0.58256994  0.99712883  0.87174273     0.08700
C510        C  0.57250100  0.01595425  0.85250632    -0.18100
loop_ 
_geom_bond_atom_site_label_1 
_geom_bond_atom_site_label_2 
_geom_bond_distance 
_geom_bond_site_symmetry_2 
_ccdc_geom_bond_type 
C1            N2   1.359       .  A
C1            N6   1.352       .  A
C1          C252   1.433       .  S
N2          C258   1.363       .  A
C3            N4   1.364   1_556  A
C3          N257   1.363       .  A
C3          C411   1.475       .  S
N4            C5   1.358       .  A
C5          N261   1.351   1_554  A
C5          C251   1.436       .  S
N6          C260   1.351       .  A
C7           N12   1.357       .  A
C7          N263   1.357       .  A
C7          C244   1.439       .  S
N8            C9   1.358   1_556  A
N8          C262   1.357       .  A
C9           N10   1.355       .  A
C9          C240   1.434       .  S
N10          C11   1.357   1_554  A
C11         N267   1.361       .  A
C11         C103   1.468       .  S
N12         C266   1.361       .  A
O13          C21   1.270       .  A
O13         Co33   1.897       .  S
O14          C22   1.256       .  A
O14         Co34   1.986       .  S
O15          C23   1.296       .  A
O15         Co35   2.079       .  S
O16          C24   1.264       .  A
O16         Co36   2.016       .  S
O17          C23   1.270       .  A
O17         Co34   1.899       .  S
O18          C24   1.254       .  A
O18         Co33   1.984       .  S
O19          C22   1.265       .  A
O19         Co36   2.022       .  S
O20          C21   1.295       .  A
O20         Co35   2.076       .  S
C21         C255   1.434       .  S
C22         C227   1.445       .  S
C23         C248   1.437       .  S
C24         C228   1.440       .  S
O25          C38   1.271       .  A
O25         Co33   2.022       .  S
O26          C39   1.241       .  A
O26         Co34   1.959       .  S
O27          C40   1.253       .  A
O27         Co35   2.006       .  S
O28          C41   1.257       .  A
O28         Co36   1.960       .  S
O29          C41   1.270       .  A
O29         Co34   2.016       .  S
O30          C40   1.242       .  A
O30         Co33   1.962       .  S
O31          C38   1.258       .  A
O31         Co36   1.967       .  S
O32          C39   1.252       .  A
O32         Co35   2.002       .  S
Co33         O37   1.927       .  S
Co34         O37   1.929       .  S
Co35         O37   2.257       .  S
Co36         O37   2.098       .  S
C38         C236   1.436       .  S
C39         C243   1.433       .  S
C40         C247   1.437       .  S
C41         C235   1.428       .  S
C42          N43   1.359       .  A
C42          N47   1.347       .  A
C42         C239   1.436       .  S
N43         C299   1.367       .  A
C44          N45   1.363       .  A
C44         N298   1.367   1_554  A
C44         C393   1.476       .  S
N45          C46   1.358       .  A
C46         N302   1.349       .  A
C46         C232   1.427       .  S
N47         C301   1.349       .  A
C48          N49   1.361       .  A
C48          N53   1.357       .  A
C48         C231   1.443       .  S
N49         C305   1.361       .  A
C50          N51   1.359       .  A
C50         N304   1.361   1_554  A
C50         C224   1.447       .  S
N51         C307   1.362       .  A
C52          N53   1.359       .  A
C52         N306   1.362       .  A
C52          C93   1.475       .  S
O54          C62   1.240       .  A
O54         Co74   1.957       .  S
O55          C63   1.270       .  A
O55         Co75   2.019   1_655  S
O56          C64   1.253       .  A
O56         Co76   2.006       .  S
O57          C65   1.257       .  A
O57         Co77   1.962       .  S
O58          C64   1.242       .  A
O58         Co75   1.963       .  S
O59          C65   1.270   1_455  A
O59         Co74   2.015       .  S
O60          C63   1.258       .  A
O60         Co77   1.965       .  S
O61          C62   1.251       .  A
O61         Co76   2.001       .  S
C62         C220   1.431       .  S
C63         C192   1.433       .  S
C64         C216   1.438       .  S
C65         C196   1.428       .  S
O66          C79   1.257   1_455  A
O66         Co74   1.987       .  S
O67          C80   1.270       .  A
O67         Co75   1.895       .  S
O68          C81   1.296       .  A
O68         Co76   2.076       .  S
O69          C82   1.264       .  A
O69         Co77   2.013       .  S
O70          C82   1.255   1_455  A
O70         Co75   1.984       .  S
O71          C81   1.270       .  A
O71         Co74   1.900       .  S
O72          C79   1.265       .  A
O72         Co77   2.020       .  S
O73          C80   1.295       .  A
O73         Co76   2.074       .  S
Co74         O78   1.928       .  S
Co75         O78   1.928       .  S
Co76         O78   2.258       .  S
Co77         O78   2.094   1_655  S
C79         C204   1.446       .  S
C80         C211   1.432       .  S
C81         C212   1.437       .  S
C82         C203   1.439       .  S
C83          N84   1.350       .  A
C83          N88   1.358       .  A
C83         C215   1.437       .  S
N84         C340   1.352       .  A
C85          N86   1.359       .  A
C85         N339   1.352       .  A
C85         C208   1.431       .  S
N86          C87   1.362       .  A
C87         N343   1.365   1_554  A
C87         C401   1.474       .  S
N88         C342   1.365       .  A
C89          N90   1.361       .  A
C89          N94   1.360       .  A
C89         C207   1.448       .  S
N90         C346   1.361       .  A
C91          N92   1.357       .  A
C91         N345   1.361       .  A
C91         C200   1.442       .  S
N92         C348   1.359       .  A
C93          N94   1.362       .  A
C93         N347   1.359       .  A
C95          N96   1.358       .  A
C95         N100   1.349       .  A
C95         C199   1.427       .  S
N96          C97   1.363       .  A
C97         N353   1.365       .  A
C97         C150   1.473       .  S
N98          C99   1.359       .  A
N98         C352   1.365   1_554  A
C99         N355   1.348   1_554  A
C99         C195   1.433       .  S
N100        C354   1.348       .  A
C101        N102   1.354       .  A
C101        N361   1.357       .  A
C101        C223   1.433       .  S
N102        C358   1.357       .  A
C103        N104   1.361   1_556  A
C103        N357   1.357       .  A
N104        C105   1.358       .  A
C105        N106   1.358   1_554  A
C105        C219   1.440       .  S
N106        C356   1.357       .  A
O107        C115   1.265       .  A
O107       Co127   2.012       .  S
O108        C116   1.293       .  A
O108       Co128   2.060       .  S
O109        C117   1.272       .  A
O109       Co129   1.906       .  S
O110        C118   1.261       .  A
O110       Co130   1.997       .  S
O111        C117   1.293       .  A
O111       Co128   2.061       .  S
O112        C118   1.265       .  A
O112       Co127   2.011       .  S
O113        C116   1.271       .  A
O113       Co130   1.906       .  S
O114        C115   1.262       .  A
O114       Co129   1.998       .  S
C115        C188   1.445       .  S
C116        C163   1.435       .  S
C117        C187   1.436       .  S
C118        C167   1.443       .  S
O119        C132   1.263       .  A
O119       Co127   1.978       .  S
O120        C133   1.252       .  A
O120       Co128   1.998       .  S
O121        C134   1.270       .  A
O121       Co129   2.012       .  S
O122        C135   1.247       .  A
O122       Co130   1.977       .  S
O123        C135   1.252       .  A
O123       Co128   1.998       .  S
O124        C134   1.263       .  A
O124       Co127   1.976       .  S
O125        C132   1.269       .  A
O125       Co130   2.011       .  S
O126        C133   1.247       .  A
O126       Co129   1.977       .  S
Co127       O131   2.085       .  S
Co128       O131   2.250       .  S
Co129       O131   1.949       .  S
Co130       O131   1.949       .  S
C132        C175   1.436       .  S
C133        C176   1.442       .  S
C134        C180   1.434       .  S
C135        C168   1.442       .  S
C136        N137   1.363       .  A
C136        N141   1.359   1_554  A
C136        C191   1.447       .  S
N137        C393   1.365       .  A
C138        N139   1.358       .  A
C138        N392   1.365       .  A
C138        C299   1.476       .  S
N139        C140   1.355       .  A
C140        N396   1.358       .  A
C140        C184   1.437       .  S
N141        C395   1.358       .  A
C142        N143   1.359   1_554  A
C142        N147   1.362       .  A
C142        C164   1.446       .  S
N143        C399   1.358       .  A
C144        N145   1.354       .  A
C144        N398   1.358       .  A
C144        C160   1.437       .  S
N145        C146   1.358       .  A
C146        N402   1.364       .  A
C146        C342   1.474       .  S
N147        C401   1.364       .  A
C148        N149   1.355       .  A
C148        N153   1.357       .  A
C148        C183   1.437       .  S
N149        C405   1.359   1_554  A
C150        N151   1.363       .  A
C150        N404   1.359       .  A
N151        C152   1.361       .  A
C152        N408   1.358       .  A
C152        C179   1.444       .  S
N153        C407   1.358   1_554  A
C154        N155   1.356       .  A
C154        N159   1.357       .  A
C154        C172   1.438       .  S
N155        C411   1.360   1_554  A
C156        N157   1.364       .  A
C156        N410   1.360       .  A
C156        C258   1.475       .  S
N157        C158   1.361       .  A
C158        N414   1.358       .  A
C158        C171   1.444       .  S
N159        C413   1.358   1_554  A
C160        C161   1.207       .  T
C161        C162   1.413       .  S
C162        C163   1.206       .  T
C164        C165   1.212       .  T
C165        C166   1.422       .  S
C166        C167   1.211       .  T
C168        C169   1.210       .  T
C169        C170   1.420       .  S
C170        C171   1.210       .  T
C172        C173   1.207       .  T
C173        C174   1.414       .  S
C174        C175   1.207       .  T
C176        C177   1.210       .  T
C177        C178   1.420       .  S
C178        C179   1.210       .  T
C180        C181   1.206       .  T
C181        C182   1.413       .  S
C182        C183   1.206       .  T
C184        C185   1.207       .  T
C185        C186   1.414       .  S
C186        C187   1.207       .  T
C188        C189   1.212       .  T
C189        C190   1.423       .  S
C190        C191   1.213       .  T
C192        C193   1.205       .  T
C193        C194   1.411       .  S
C194        C195   1.205       .  T
C196        C197   1.202       .  T
C197        C198   1.406       .  S
C198        C199   1.201       .  T
C200        C201   1.209       .  T
C201        C202   1.418       .  S
C202        C203   1.209       .  T
C204        C205   1.213       .  T
C205        C206   1.424       .  S
C206        C207   1.213       .  T
C208        C209   1.203       .  T
C209        C210   1.409       .  S
C210        C211   1.204       .  T
C212        C213   1.207       .  T
C213        C214   1.414       .  S
C214        C215   1.207       .  T
C216        C217   1.208       .  T
C217        C218   1.416       .  S
C218        C219   1.208       .  T
C220        C221   1.204       .  T
C221        C222   1.409       .  S
C222        C223   1.204       .  T
C224        C225   1.213       .  T
C225        C226   1.423       .  S
C226        C227   1.212       .  T
C228        C229   1.209       .  T
C229        C230   1.418       .  S
C230        C231   1.210       .  T
C232        C233   1.201       .  T
C233        C234   1.406       .  S
C234        C235   1.202       .  T
C236        C237   1.207       .  T
C237        C238   1.414       .  S
C238        C239   1.207       .  T
C240        C241   1.205       .  T
C241        C242   1.410       .  S
C242        C243   1.204   1_565  T
C244        C245   1.207       .  T
C245        C246   1.415       .  S
C246        C247   1.207   1_565  T
C248        C249   1.207   1_545  T
C249        C250   1.413       .  S
C250        C251   1.206       .  T
C252        C253   1.204       .  T
C253        C254   1.410       .  S
C254        C255   1.205   1_565  T
C256        N257   1.359       .  A
C256        N261   1.352       .  A
C256        C507   1.433       .  S
C258        N259   1.364       .  A
N259        C260   1.358       .  A
C260        C506   1.436       .  S
C262        N267   1.357       .  A
C262        C499   1.439       .  S
N263        C264   1.358       .  A
C264        N265   1.355       .  A
C264        C495   1.434       .  S
N265        C266   1.357       .  A
C266        C358   1.468       .  S
O268        C276   1.270       .  A
O268       Co288   1.897       .  S
O269        C277   1.256       .  A
O269       Co289   1.986       .  S
O270        C278   1.296       .  A
O270       Co290   2.079       .  S
O271        C279   1.264       .  A
O271       Co291   2.016       .  S
O272        C278   1.270       .  A
O272       Co289   1.899       .  S
O273        C279   1.254       .  A
O273       Co288   1.984       .  S
O274        C277   1.265       .  A
O274       Co291   2.022       .  S
O275        C276   1.295       .  A
O275       Co290   2.076       .  S
C276        C510   1.434       .  S
C277        C482   1.445       .  S
C278        C503   1.437       .  S
C279        C483   1.440       .  S
O280        C293   1.271       .  A
O280       Co288   2.022       .  S
O281        C294   1.241       .  A
O281       Co289   1.959       .  S
O282        C295   1.253       .  A
O282       Co290   2.006       .  S
O283        C296   1.257       .  A
O283       Co291   1.960       .  S
O284        C296   1.270       .  A
O284       Co289   2.016       .  S
O285        C295   1.242       .  A
O285       Co288   1.962       .  S
O286        C293   1.258       .  A
O286       Co291   1.967       .  S
O287        C294   1.252       .  A
O287       Co290   2.002       .  S
Co288       O292   1.927       .  S
Co289       O292   1.929       .  S
Co290       O292   2.257       .  S
Co291       O292   2.098       .  S
C293        C491   1.436       .  S
C294        C498   1.433       .  S
C295        C502   1.437       .  S
C296        C490   1.428       .  S
C297        N298   1.359       .  A
C297        N302   1.347   1_556  A
C297        C494   1.436       .  S
C299        N300   1.363       .  A
N300        C301   1.358       .  A
C301        C487   1.427       .  S
C303        N304   1.361       .  A
C303        N308   1.357       .  A
C303        C486   1.443       .  S
C305        N306   1.359       .  A
C305        C479   1.447       .  S
C307        N308   1.359   1_554  A
C307        C348   1.475       .  S
O309        C317   1.240       .  A
O309       Co329   1.957       .  S
O310        C318   1.270       .  A
O310       Co330   2.019   1_655  S
O311        C319   1.253       .  A
O311       Co331   2.006       .  S
O312        C320   1.257       .  A
O312       Co332   1.962       .  S
O313        C319   1.242       .  A
O313       Co330   1.963       .  S
O314        C320   1.270   1_455  A
O314       Co329   2.015       .  S
O315        C318   1.258       .  A
O315       Co332   1.965       .  S
O316        C317   1.251       .  A
O316       Co331   2.001       .  S
C317        C475   1.431       .  S
C318        C447   1.433       .  S
C319        C471   1.438       .  S
C320        C451   1.428       .  S
O321        C334   1.257   1_455  A
O321       Co329   1.987       .  S
O322        C335   1.270       .  A
O322       Co330   1.895       .  S
O323        C336   1.296       .  A
O323       Co331   2.076       .  S
O324        C337   1.264       .  A
O324       Co332   2.013       .  S
O325        C337   1.255   1_455  A
O325       Co330   1.984       .  S
O326        C336   1.270       .  A
O326       Co329   1.900       .  S
O327        C334   1.265       .  A
O327       Co332   2.020       .  S
O328        C335   1.295       .  A
O328       Co331   2.074       .  S
Co329       O333   1.928       .  S
Co330       O333   1.928       .  S
Co331       O333   2.258       .  S
Co332       O333   2.094   1_655  S
C334        C459   1.446       .  S
C335        C466   1.432       .  S
C336        C467   1.437       .  S
C337        C458   1.439       .  S
C338        N339   1.350   1_556  A
C338        N343   1.358       .  A
C338        C470   1.437       .  S
C340        N341   1.359       .  A
C340        C463   1.431       .  S
N341        C342   1.362       .  A
C344        N345   1.361   1_556  A
C344        N349   1.360       .  A
C344        C462   1.448       .  S
C346        N347   1.357       .  A
C346        C455   1.442       .  S
C348        N349   1.362   1_554  A
C350        N351   1.358       .  A
C350        N355   1.349       .  A
C350        C454   1.427       .  S
N351        C352   1.363       .  A
C352        C405   1.473       .  S
N353        C354   1.359       .  A
C354        C450   1.433       .  S
C356        N357   1.354       .  A
C356        C478   1.433       .  S
C358        N359   1.361       .  A
N359        C360   1.358       .  A
C360        N361   1.358       .  A
C360        C474   1.440       .  S
O362        C370   1.265       .  A
O362       Co382   2.012       .  S
O363        C371   1.293       .  A
O363       Co383   2.060       .  S
O364        C372   1.272       .  A
O364       Co384   1.906       .  S
O365        C373   1.261       .  A
O365       Co385   1.997       .  S
O366        C372   1.293       .  A
O366       Co383   2.061       .  S
O367        C373   1.265       .  A
O367       Co382   2.011       .  S
O368        C371   1.271       .  A
O368       Co385   1.906       .  S
O369        C370   1.262       .  A
O369       Co384   1.998       .  S
C370        C443   1.445       .  S
C371        C418   1.435       .  S
C372        C442   1.436       .  S
C373        C422   1.443       .  S
O374        C387   1.263       .  A
O374       Co382   1.977       .  S
O375        C388   1.252       .  A
O375       Co383   1.998       .  S
O376        C389   1.270       .  A
O376       Co384   2.012       .  S
O377        C390   1.247       .  A
O377       Co385   1.977       .  S
O378        C390   1.252       .  A
O378       Co383   1.998       .  S
O379        C389   1.263       .  A
O379       Co382   1.976       .  S
O380        C387   1.269       .  A
O380       Co385   2.011       .  S
O381        C388   1.247       .  A
O381       Co384   1.977       .  S
Co382       O386   2.085       .  S
Co383       O386   2.250       .  S
Co384       O386   1.949       .  S
Co385       O386   1.949       .  S
C387        C430   1.436       .  S
C388        C431   1.442       .  S
C389        C435   1.434       .  S
C390        C423   1.442       .  S
C391        N392   1.363       .  A
C391        N396   1.359       .  A
C391        C446   1.447       .  S
C393        N394   1.358   1_554  A
N394        C395   1.355       .  A
C395        C439   1.437       .  S
C397        N398   1.359       .  A
C397        N402   1.362       .  A
C397        C419   1.446       .  S
C399        N400   1.354       .  A
C399        C415   1.437       .  S
N400        C401   1.358   1_556  A
C403        N404   1.355       .  A
C403        N408   1.357       .  A
C403        C438   1.437       .  S
C405        N406   1.363       .  A
N406        C407   1.361       .  A
C407        C434   1.444       .  S
C409        N410   1.356       .  A
C409        N414   1.357       .  A
C409        C427   1.438       .  S
C411        N412   1.364       .  A
N412        C413   1.361       .  A
C413        C426   1.444       .  S
C415        C416   1.207       .  T
C416        C417   1.413       .  S
C417        C418   1.206       .  T
C419        C420   1.212       .  T
C420        C421   1.422       .  S
C421        C422   1.211       .  T
C423        C424   1.210       .  T
C424        C425   1.420       .  S
C425        C426   1.210       .  T
C427        C428   1.207       .  T
C428        C429   1.414       .  S
C429        C430   1.207       .  T
C431        C432   1.210       .  T
C432        C433   1.420       .  S
C433        C434   1.210       .  T
C435        C436   1.206       .  T
C436        C437   1.413       .  S
C437        C438   1.206       .  T
C439        C440   1.207       .  T
C440        C441   1.414       .  S
C441        C442   1.207       .  T
C443        C444   1.212       .  T
C444        C445   1.423       .  S
C445        C446   1.213       .  T
C447        C448   1.205       .  T
C448        C449   1.411       .  S
C449        C450   1.205       .  T
C451        C452   1.202       .  T
C452        C453   1.406       .  S
C453        C454   1.201       .  T
C455        C456   1.209       .  T
C456        C457   1.418       .  S
C457        C458   1.209       .  T
C459        C460   1.213       .  T
C460        C461   1.424       .  S
C461        C462   1.213       .  T
C463        C464   1.203       .  T
C464        C465   1.409       .  S
C465        C466   1.204       .  T
C467        C468   1.207       .  T
C468        C469   1.414       .  S
C469        C470   1.207       .  T
C471        C472   1.208       .  T
C472        C473   1.416       .  S
C473        C474   1.208       .  T
C475        C476   1.204       .  T
C476        C477   1.409       .  S
C477        C478   1.204       .  T
C479        C480   1.213       .  T
C480        C481   1.423       .  S
C481        C482   1.212       .  T
C483        C484   1.209       .  T
C484        C485   1.418       .  S
C485        C486   1.210       .  T
C487        C488   1.201       .  T
C488        C489   1.406       .  S
C489        C490   1.202       .  T
C491        C492   1.207       .  T
C492        C493   1.414       .  S
C493        C494   1.207       .  T
C495        C496   1.205       .  T
C496        C497   1.410       .  S
C497        C498   1.204   1_565  T
C499        C500   1.207       .  T
C500        C501   1.415       .  S
C501        C502   1.207   1_565  T
C503        C504   1.207   1_545  T
C504        C505   1.413       .  S
C505        C506   1.206       .  T
C507        C508   1.204       .  T
C508        C509   1.410       .  S
C509        C510   1.205   1_565  T
