geometry optimzed in LAMMPS
_audit_creation_date              2020-11-30 
_audit_creation_method            'lammps2cif' 
_symmetry_space_group_name_H-M    'P1' 
_symmetry_Int_Tables_number       1 
_symmetry_cell_setting            triclinic 
loop_ 
_symmetry_equiv_pos_as_xyz 
  x,y,z 
_cell_length_a                    44.15762459672752 
_cell_length_b                    44.153100246844986 
_cell_length_c                    44.14715252834314 
_cell_angle_alpha                 90.06865061767058 
_cell_angle_beta                  90.02157179443071 
_cell_angle_gamma                 89.9442789726919 
loop_ 
_atom_site_label 
_atom_site_type_symbol 
_atom_site_fract_x 
_atom_site_fract_y 
_atom_site_fract_z 
_atom_site_charge 
C1          C  0.51559527  0.25316719  0.25139276     0.00400
C2          C  0.48499540  0.25369922  0.25076885     0.00400
C3          C  0.51411407  0.75022448  0.26274054     0.00400
C4          C  0.48344978  0.75018833  0.26274146     0.00400
C5          C  0.51433251  0.25648374  0.75960591     0.00400
C6          C  0.48376430  0.25534551  0.75790520     0.00400
C7          C  0.25026950  0.25337260  0.52125319     0.00400
C8          C  0.25044567  0.25400775  0.49062928     0.00400
C9          C  0.25072907  0.98763528  0.75362106     0.00400
C10         C  0.24997169  0.01823742  0.75472386     0.00400
Fe11       Fe  0.32953897  0.17344133  0.78031423     1.65780
Fe12       Fe  0.32596602  0.22682945  0.83565349     1.73250
Fe13       Fe  0.27443467  0.16972857  0.83391238     1.54420
O14         O  0.25565987  0.15945916  0.79244492    -0.81830
O15         O  0.32794355  0.20761818  0.87830604    -0.80140
O16         O  0.28884936  0.17438254  0.75755624    -0.84340
O17         O  0.32161069  0.12894628  0.79231342    -0.79200
O18         O  0.24961721  0.20887275  0.83208215    -0.80970
O19         O  0.37059720  0.21578664  0.82693815    -0.83710
C20         C  0.30758878  0.11470221  0.81299018     0.97050
C21         C  0.26230881  0.16688888  0.76558304     1.04490
O22         O  0.31038827  0.18970758  0.81697616    -1.12700
O23         O  0.32463140  0.25002164  0.79518724    -0.75130
O24         O  0.33826935  0.21500218  0.76147065    -0.78620
O25         O  0.29580089  0.12813903  0.83562633    -0.79310
C26         C  0.33241766  0.24210132  0.76866492     0.95950
O27         O  0.37239306  0.17326966  0.79962948    -0.77260
O28         O  0.28344031  0.24398692  0.84505789    -0.82460
C29         C  0.30608766  0.19493353  0.89212556     0.98580
C30         C  0.25652276  0.23572226  0.83930679     1.04490
O31         O  0.28613538  0.17949113  0.87824960    -0.78100
C32         C  0.38531610  0.19588482  0.81216544     1.02790
Fe33       Fe  0.17049619  0.33305117  0.78245580     1.65780
Fe34       Fe  0.16675060  0.27601456  0.83427159     1.73250
Fe35       Fe  0.22284068  0.32771855  0.83863601     1.54420
O36         O  0.24678338  0.32692257  0.79851081    -0.81830
O37         O  0.17651626  0.28595167  0.87909352    -0.80140
O38         O  0.21267313  0.34214464  0.76450992    -0.84340
O39         O  0.17070370  0.37586293  0.80220630    -0.79200
O40         O  0.24009817  0.28532151  0.84768699    -0.80970
O41         O  0.12540563  0.29740561  0.83694405    -0.83710
C42         C  0.19414250  0.38757157  0.81443271     0.97050
C43         C  0.23961322  0.33566626  0.77205441     1.04490
O44         O  0.18631255  0.31272718  0.81875525    -1.12700
O45         O  0.15597063  0.25899824  0.79212791    -0.75130
O46         O  0.17157283  0.29312785  0.75853986    -0.78620
O47         O  0.21211264  0.37216397  0.83070818    -0.79310
C48         C  0.16345813  0.26651411  0.76550022     0.95950
O49         O  0.12558602  0.32429097  0.79421100    -0.77260
O50         O  0.20631004  0.25172008  0.83123440    -0.82460
C51         C  0.19079615  0.30620801  0.89377281     0.98580
C52         C  0.23279065  0.25872726  0.83977259     1.04490
O53         O  0.20241928  0.32901582  0.88066881    -0.78100
C54         C  0.11169738  0.30898728  0.81440642     1.02790
Fe55       Fe  0.32831800  0.27891781  0.67720573     1.65780
Fe56       Fe  0.27374016  0.33285736  0.67941537     1.73250
Fe57       Fe  0.32986241  0.33315407  0.73219422     1.54410
O58         O  0.33937986  0.29193648  0.75186002    -0.81830
O59         O  0.29247803  0.37544843  0.67683310    -0.80140
O60         O  0.32715866  0.25652086  0.71792531    -0.84340
O61         O  0.37230986  0.29175315  0.68593690    -0.79200
O62         O  0.29011475  0.33128873  0.75602046    -0.80970
O63         O  0.28570731  0.32371939  0.63508832    -0.83710
C64         C  0.38624034  0.31225987  0.70052674     0.97050
C65         C  0.33334125  0.26481076  0.74474262     1.04490
O66         O  0.31100718  0.31533652  0.69590762    -1.12700
O67         O  0.25146224  0.29214348  0.68095353    -0.75130
O68         O  0.28728617  0.25920288  0.66760799    -0.78620
O69         O  0.37248883  0.33456546  0.71264849    -0.79310
C70         C  0.25997703  0.26586740  0.67307701     0.95950
O71         O  0.32907845  0.29787600  0.63426427    -0.77260
O72         O  0.25514176  0.34240657  0.72150232    -0.82460
C73         C  0.30499006  0.39023883  0.69811488     0.98580
C74         C  0.26305340  0.33693006  0.74860511     1.04490
O75         O  0.32027805  0.37735139  0.71893799    -0.78100
C76         C  0.30634595  0.30956061  0.62081260     1.02790
Fe77       Fe  0.22425549  0.17383007  0.67496279     1.65780
Fe78       Fe  0.16989579  0.17408653  0.72998093     1.73250
Fe79       Fe  0.16939299  0.22826173  0.67472954     1.54410
O80         O  0.21019621  0.24908909  0.66745247    -0.81830
O81         O  0.12611503  0.17409684  0.71277727    -0.80140
O82         O  0.24628783  0.21472209  0.67543743    -0.84340
O83         O  0.21071123  0.18168453  0.63101928    -0.79200
O84         O  0.16868059  0.25105831  0.71505846    -0.80970
O85         O  0.17761139  0.12986380  0.71620389    -0.83710
C86         C  0.19083640  0.19746183  0.61748145     0.97050
C87         C  0.23757481  0.24177494  0.67150724     1.04490
O88         O  0.18747979  0.19169306  0.69294344    -1.12700
O89         O  0.21115024  0.17333685  0.75200523    -0.75130
O90         O  0.24506651  0.16525322  0.71558887    -0.78620
O91         O  0.16930375  0.21045912  0.63147382    -0.79310
C92         C  0.23799766  0.16811357  0.74315772     0.95950
O93         O  0.20629913  0.13060331  0.67455941    -0.77260
O94         O  0.16180040  0.21558450  0.75015744    -0.82460
C95         C  0.11211538  0.19500805  0.69860606     0.98580
C96         C  0.16419711  0.24305437  0.74214835     1.04490
O97         O  0.12568139  0.21410033  0.68197263    -0.78100
C98         C  0.19375659  0.11650884  0.69635609     1.02790
C99         C  0.01410137  0.24970355  0.75770763     0.00400
C100        C  0.98359563  0.25175139  0.75589944     0.00400
C101        C  0.24801795  0.48782416  0.75269483     0.00400
C102        C  0.24580468  0.51841339  0.75272804     0.00400
C103        C  0.74804614  0.48472778  0.25534691     0.00400
C104        C  0.74807025  0.51533659  0.25595652     0.00400
C105        C  0.75277846  0.24781615  0.99244142     0.00400
C106        C  0.75399428  0.24632265  0.02301593     0.00400
Fe107      Fe  0.82841866  0.27498170  0.17859696     1.65780
Fe108      Fe  0.77537240  0.33116538  0.17826585     1.73250
Fe109      Fe  0.82917831  0.32908996  0.23321921     1.54410
O110        O  0.83874145  0.28805624  0.25278683    -0.81830
O111        O  0.79502832  0.37383456  0.17723196    -0.80140
O112        O  0.82691018  0.25225777  0.21927954    -0.84340
O113        O  0.87267103  0.28738466  0.18823684    -0.79200
O114        O  0.78819174  0.32744881  0.25497246    -0.80970
O115        O  0.78863387  0.32157697  0.13430717    -0.83710
C116        C  0.88611039  0.30799080  0.20331115     0.97050
C117        C  0.83385909  0.26072443  0.24584709     1.04490
O118        O  0.81136871  0.31205276  0.19630882    -1.12700
O119        O  0.75177325  0.29124103  0.17956842    -0.75130
O120        O  0.78654763  0.25630028  0.16865389    -0.78620
O121        O  0.87205076  0.33047978  0.21466757    -0.79310
C122        C  0.75934136  0.26425026  0.17351115     0.95950
O123        O  0.83066960  0.29367765  0.13577104    -0.77260
O124        O  0.75523874  0.34084819  0.21914541    -0.82460
C125        C  0.80674077  0.38732067  0.19992342     0.98580
C126        C  0.76168223  0.33425831  0.24627301     1.04490
O127        O  0.82050665  0.37304709  0.22070385    -0.78100
C128        C  0.80889974  0.30575405  0.12124761     1.02790
Fe129      Fe  0.77481852  0.17106599  0.33595191     1.65780
Fe130      Fe  0.83093017  0.17029004  0.28327885     1.73250
Fe131      Fe  0.82946211  0.22497342  0.33753983     1.54410
O132        O  0.78840474  0.24500813  0.34700226    -0.81830
O133        O  0.87318056  0.16819163  0.30330636    -0.80140
O134        O  0.75265128  0.21193690  0.33385633    -0.84340
O135        O  0.78676973  0.18081748  0.38027041    -0.79200
O136        O  0.82807645  0.24697275  0.29667712    -0.80970
O137        O  0.82048475  0.12636779  0.29621698    -0.83710
C138        C  0.80747687  0.19526483  0.39419414     0.97050
C139        C  0.76111722  0.23834205  0.34138001     1.04490
O140        O  0.81207287  0.18840489  0.31932549    -1.12700
O141        O  0.79132342  0.17254607  0.25948544    -0.75130
O142        O  0.75642646  0.16083341  0.29391313    -0.78620
O143        O  0.83034977  0.20629271  0.38051386    -0.79310
C144        C  0.76442822  0.16606433  0.26680074     0.95950
O145        O  0.79340699  0.12829917  0.33873930    -0.77260
O146        O  0.84135158  0.21124642  0.26351917    -0.82460
C147        C  0.88715854  0.19079004  0.31446466     0.98580
C148        C  0.83480368  0.23839324  0.27010392     1.04490
O149        O  0.87349328  0.21181696  0.32866636    -0.78100
C150        C  0.80494723  0.11356574  0.31683213     1.02790
Fe151      Fe  0.72404831  0.33004512  0.33666615     1.65780
Fe152      Fe  0.66975411  0.32732513  0.28197166     1.73250
Fe153      Fe  0.67022749  0.27476971  0.33851051     1.54420
O154        O  0.71139236  0.25519408  0.34754152    -0.81830
O155        O  0.62661784  0.32849391  0.30010746    -0.80140
O156        O  0.74685699  0.28937445  0.33676059    -0.84340
O157        O  0.71083900  0.32266138  0.38066793    -0.79200
O158        O  0.67132493  0.25087134  0.29864416    -0.80970
O159        O  0.67763431  0.37183008  0.29399639    -0.83710
C160        C  0.69096836  0.30752444  0.39482886     0.97050
C161        C  0.73858251  0.26246788  0.34235813     1.04490
O162        O  0.68763305  0.31109862  0.31938702    -1.12700
O163        O  0.71074303  0.32682157  0.25972567    -0.75130
O164        O  0.74414651  0.33826570  0.29576950    -0.78620
O165        O  0.66922017  0.29421447  0.38130623    -0.79310
C166        C  0.73730640  0.33346609  0.26841691     0.95950
O167        O  0.70524229  0.37310840  0.33627912    -0.77260
O168        O  0.66122105  0.28528124  0.26325416    -0.82460
C169        C  0.61257227  0.30701425  0.31319593     0.98580
C170        C  0.66572995  0.25816314  0.27150553     1.04490
O171        O  0.62607315  0.28749571  0.32951118    -0.78100
C172        C  0.69269530  0.38627857  0.31386042     1.02790
Fe173      Fe  0.67260257  0.16834353  0.23177539     1.65780
Fe174      Fe  0.66981370  0.22406603  0.17927872     1.73250
Fe175      Fe  0.72571068  0.17187429  0.17671049     1.54420
O176        O  0.74881310  0.17503033  0.21682578    -0.81830
O177        O  0.68045145  0.21288114  0.13478773    -0.80140
O178        O  0.71468935  0.15778186  0.24972705    -0.84340
O179        O  0.67065121  0.12652300  0.21088732    -0.79200
O180        O  0.74302234  0.21414965  0.16588065    -0.80970
O181        O  0.62828840  0.20301067  0.17625552    -0.83710
C182        C  0.69387242  0.11298830  0.20044467     0.97050
C183        C  0.74141084  0.16595715  0.24302470     1.04490
O184        O  0.68903848  0.18776434  0.19559420    -1.12700
O185        O  0.65854033  0.24149902  0.22143904    -0.75130
O186        O  0.67485886  0.20816619  0.25562457    -0.78620
O187        O  0.71490543  0.12725094  0.18683892    -0.79310
C188        C  0.66601366  0.23447495  0.24831311     0.95950
O189        O  0.62805457  0.17834829  0.22017252    -0.77260
O190        O  0.70946703  0.24801703  0.18243235    -0.82460
C191        C  0.69455793  0.19184249  0.12091798     0.98580
C192        C  0.73583512  0.24091934  0.17357794     1.04490
O193        O  0.70530963  0.16901032  0.13480144    -0.78100
C194        C  0.61428451  0.19238737  0.19904796     1.02790
C195        C  0.74741040  0.01491640  0.26111268     0.00400
C196        C  0.74983099  0.98441349  0.25919612     0.00400
C197        C  0.74873789  0.25126283  0.49234349     0.00400
C198        C  0.74743408  0.24970939  0.52291952     0.00400
C199        C  0.74780268  0.75088050  0.99498371     0.00400
C200        C  0.74657571  0.74919162  0.02554364     0.00400
Fe201      Fe  0.77500062  0.67163141  0.18045969     1.65780
Fe202      Fe  0.83038295  0.72600421  0.17984983     1.73250
Fe203      Fe  0.83034249  0.67142017  0.23484540     1.54410
O204        O  0.78978753  0.66586708  0.25654505    -0.81830
O205        O  0.87424236  0.70985066  0.18237910    -0.80140
O206        O  0.75355266  0.66772264  0.22164108    -0.84340
O207        O  0.79016780  0.62754078  0.18464339    -0.79200
O208        O  0.83299374  0.71253221  0.25652152    -0.80970
O209        O  0.82576472  0.71062807  0.13595318    -0.83710
C210        C  0.80797488  0.61383764  0.20270342     0.97050
C211        C  0.76225166  0.66554555  0.24887347     1.04490
O212        O  0.81225179  0.68928372  0.19799832    -1.12700
O213        O  0.78980284  0.74816978  0.17688758    -0.75130
O214        O  0.75382518  0.71294986  0.17583625    -0.78620
O215        O  0.82786336  0.62756578  0.21848244    -0.79310
C216        C  0.76233657  0.74033170  0.17577744     0.95950
O217        O  0.79038118  0.67454709  0.13635198    -0.77260
O218        O  0.83508336  0.74773602  0.22056540    -0.82460
C219        C  0.88796761  0.69415045  0.20225166     0.98580
C220        C  0.83423925  0.73988651  0.24804621     1.04490
O221        O  0.87425875  0.67615929  0.21996404    -0.78100
C222        C  0.80676478  0.69369896  0.12244923     1.02790
Fe223      Fe  0.77314821  0.82835431  0.34218551     1.65780
Fe224      Fe  0.82825480  0.77477680  0.33979197     1.73250
Fe225      Fe  0.82635421  0.83031792  0.28660299     1.54410
O226        O  0.78430846  0.83998541  0.26795870    -0.81830
O227        O  0.87074331  0.79429858  0.34154053    -0.80140
O228        O  0.74981522  0.82641666  0.30214390    -0.84340
O229        O  0.78508893  0.87270309  0.33291990    -0.79200
O230        O  0.82530210  0.79009013  0.26322881    -0.80970
O231        O  0.81908041  0.78670294  0.38404733    -0.83710
C232        C  0.80546639  0.88658987  0.31806544     0.97050
C233        C  0.75729006  0.83363298  0.27543323     1.04490
O234        O  0.80963495  0.81149150  0.32318070    -1.12700
O235        O  0.78776193  0.75184735  0.33786343    -0.75130
O236        O  0.75417935  0.78688868  0.35177062    -0.78620
O237        O  0.82788017  0.87279075  0.30629830    -0.79310
C238        C  0.76111788  0.75990692  0.34498594     0.95950
O239        O  0.79300066  0.82990745  0.38461816    -0.77260
O240        O  0.83834590  0.75620088  0.29824172    -0.82460
C241        C  0.88460491  0.80602328  0.31915118     0.98580
C242        C  0.83298956  0.76355471  0.27106487     1.04490
O243        O  0.87083741  0.82107720  0.29874964    -0.78100
C244        C  0.80481521  0.80734426  0.39816661     1.02790
Fe245      Fe  0.67063064  0.77485139  0.17949922     1.65780
Fe246      Fe  0.66769372  0.82705899  0.23562640     1.73250
Fe247      Fe  0.72323251  0.83023360  0.18286585     1.54410
O248        O  0.74677055  0.79027093  0.18515841    -0.81830
O249        O  0.67771205  0.87179542  0.22461157    -0.80140
O250        O  0.71255171  0.75724203  0.16831385    -0.84340
O251        O  0.66785011  0.79584434  0.13787510    -0.79200
O252        O  0.74099462  0.84082046  0.22514349    -0.80970
O253        O  0.62562087  0.82951273  0.21536800    -0.83710
C254        C  0.69073545  0.80671868  0.12417072     0.97050
C255        C  0.73933767  0.76406284  0.17607693     1.04490
O256        O  0.68682816  0.81109337  0.19898746    -1.12700
O257        O  0.65732113  0.78464662  0.25293622    -0.75130
O258        O  0.67389176  0.75101425  0.21910022    -0.78620
O259        O  0.71186801  0.82040458  0.13824648    -0.79310
C260        C  0.66533773  0.75799802  0.24558542     0.95950
O261        O  0.62624810  0.78593223  0.19003634    -0.77260
O262        O  0.70759648  0.82434001  0.25912174    -0.82460
C263        C  0.69185113  0.88569199  0.20364373     0.98580
C264        C  0.73388435  0.83327133  0.25196413     1.04490
O265        O  0.70242784  0.87192224  0.18064871    -0.78100
C266        C  0.61207125  0.80659780  0.20434431     1.02790
Fe267      Fe  0.67094821  0.66791094  0.28447720     1.65780
Fe268      Fe  0.72436084  0.66896394  0.33977525     1.73250
Fe269      Fe  0.66980048  0.72321927  0.33792740     1.54420
O270        O  0.65993381  0.74197475  0.29605336    -0.81830
O271        O  0.70466498  0.66739730  0.38223037    -0.80140
O272        O  0.67330762  0.70793221  0.26126842    -0.84340
O273        O  0.62674668  0.67782058  0.29661236    -0.79200
O274        O  0.71054625  0.74576400  0.33662357    -0.80970
O275        O  0.71180189  0.62485193  0.33007098    -0.83710
C276        C  0.61305784  0.69251363  0.31730594     0.97050
C277        C  0.66585411  0.73454842  0.26891330     1.04490
O278        O  0.68801662  0.68638518  0.32109881    -1.12700
O279        O  0.74738284  0.67098578  0.29953434    -0.75130
O280        O  0.71248134  0.65766873  0.26561763    -0.78620
O281        O  0.62707293  0.70418318  0.33964433    -0.79310
C282        C  0.73947206  0.66427261  0.27277466     0.95950
O283        O  0.66852312  0.62564176  0.30417884    -0.77260
O284        O  0.74376551  0.71013506  0.34993943    -0.82460
C285        C  0.69335435  0.69007938  0.39605259     0.98580
C286        C  0.73699636  0.73737998  0.34415306     1.04490
O287        O  0.67897104  0.71089528  0.38224038    -0.78100
C288        C  0.69090375  0.61144118  0.31547966     1.02790
C289        C  0.74789968  0.74875066  0.49478552     0.00400
C290        C  0.74876762  0.74762064  0.52539183     0.00400
C291        C  0.74797487  0.98674796  0.75761170     0.00400
C292        C  0.74783825  0.01737688  0.75746928     0.00400
Fe293      Fe  0.66943733  0.17113149  0.78222775     1.65780
Fe294      Fe  0.72332477  0.17439622  0.83681213     1.73250
Fe295      Fe  0.66755912  0.22725039  0.83478906     1.54420
O296        O  0.65748239  0.24508580  0.79259799    -0.81830
O297        O  0.70408910  0.17282471  0.87952123    -0.80140
O298        O  0.67211099  0.21084757  0.75848823    -0.84340
O299        O  0.62522551  0.18119401  0.79403607    -0.79200
O300        O  0.70742982  0.25095005  0.83274250    -0.80970
O301        O  0.71153408  0.12990282  0.82777347    -0.83710
C302        C  0.61142791  0.19592344  0.81460497     0.97050
C303        C  0.66487145  0.23761516  0.76581705     1.04490
O304        O  0.68643033  0.19056384  0.81837994    -1.12700
O305        O  0.74584164  0.17607753  0.79594692    -0.75130
O306        O  0.71061820  0.16049433  0.76332805    -0.78620
O307        O  0.62533825  0.20729466  0.83713096    -0.79310
C308        C  0.73755884  0.16781172  0.76966173     0.95950
O309        O  0.66763478  0.12916102  0.80288316    -0.77260
O310        O  0.74143132  0.21642824  0.84676837    -0.82460
C311        C  0.69229956  0.19532749  0.89327159     0.98580
C312        C  0.73390973  0.24352607  0.84089742     1.04490
O313        O  0.67741632  0.21571306  0.87929661    -0.78100
C314        C  0.69059809  0.11565827  0.81399085     1.02790
Fe315      Fe  0.82639530  0.27639975  0.83954236     1.65780
Fe316      Fe  0.82939666  0.32871707  0.78327512     1.73250
Fe317      Fe  0.77455726  0.33335535  0.83698313     1.54410
O318        O  0.75028793  0.29379639  0.83522193    -0.81830
O319        O  0.82169292  0.37328992  0.79501410    -0.80140
O320        O  0.78406788  0.25893747  0.84902461    -0.84340
O321        O  0.82834049  0.29638628  0.88190214    -0.79200
O322        O  0.75562795  0.34321556  0.79574857    -0.80970
O323        O  0.87221624  0.32932564  0.80239310    -0.83710
C324        C  0.80627588  0.30908425  0.89544084     0.97050
C325        C  0.75731607  0.26687653  0.84217319     1.04490
O326        O  0.81054640  0.31317890  0.82027693    -1.12700
O327        O  0.83826172  0.28657493  0.76512187    -0.75130
O328        O  0.82478580  0.25241823  0.79961976    -0.78620
O329        O  0.78636949  0.32424980  0.88125360    -0.79310
C330        C  0.83253934  0.25958723  0.77294002     0.95950
O331        O  0.87103773  0.28745154  0.83051105    -0.77260
O332        O  0.78851403  0.32807000  0.76058541    -0.82460
C333        C  0.80776866  0.38822677  0.81534586     0.98580
C334        C  0.76216500  0.33620621  0.76878472     1.04490
O335        O  0.79537589  0.37538734  0.83800651    -0.78100
C336        C  0.88545979  0.30706013  0.81509808     1.02790
Fe337      Fe  0.77382807  0.17429464  0.67813380     1.65780
Fe338      Fe  0.83013212  0.22628627  0.68044739     1.73250
Fe339      Fe  0.82789093  0.16988540  0.73247902     1.54410
O340        O  0.78654826  0.15977342  0.75138766    -0.81830
O341        O  0.87193558  0.20563699  0.67749108    -0.80140
O342        O  0.75149245  0.17637891  0.71904779    -0.84340
O343        O  0.78485229  0.12957829  0.68707996    -0.79200
O344        O  0.82590931  0.20938311  0.75674669    -0.80970
O345        O  0.81995670  0.21511804  0.63590773    -0.83710
C346        C  0.80575341  0.11500039  0.70055780     0.97050
C347        C  0.75971552  0.16771641  0.74521745     1.04490
O348        O  0.81093461  0.18982003  0.69662384    -1.12700
O349        O  0.79057257  0.25051442  0.68298594    -0.75130
O350        O  0.75629697  0.21664407  0.66818094    -0.78620
O351        O  0.82907975  0.12813517  0.71129295    -0.79310
C352        C  0.76407954  0.24357456  0.67446995     0.95950
O353        O  0.79315870  0.17237052  0.63550540    -0.77260
O354        O  0.84071859  0.24360699  0.72280950    -0.82460
C355        C  0.88593047  0.19388946  0.69974035     0.98580
C356        C  0.83347907  0.23607153  0.74961047     1.04490
O357        O  0.87220429  0.17940228  0.72047284    -0.78100
C358        C  0.80510002  0.19476551  0.62183285     1.02790
Fe359      Fe  0.67216119  0.27801712  0.67653623     1.65780
Fe360      Fe  0.67051502  0.33034445  0.73259216     1.73250
Fe361      Fe  0.72486072  0.33391249  0.67841685     1.54410
O362        O  0.74848233  0.29402416  0.68063145    -0.81830
O363        O  0.67973407  0.37479292  0.72120683    -0.80140
O364        O  0.71420814  0.26010287  0.66585840    -0.84340
O365        O  0.66934162  0.29854941  0.63474985    -0.79200
O366        O  0.74404481  0.34401652  0.71966763    -0.80970
O367        O  0.62773868  0.33244849  0.71354233    -0.83710
C368        C  0.69187306  0.30943543  0.62057765     0.97050
C369        C  0.74103844  0.26734619  0.67322505     1.04490
O370        O  0.68875155  0.31448737  0.69549754    -1.12700
O371        O  0.66033551  0.28824352  0.75038702    -0.75130
O372        O  0.67460402  0.25401121  0.71618041    -0.78620
O373        O  0.71269340  0.32413794  0.63405280    -0.79310
C374        C  0.66630095  0.26121161  0.74268313     0.95950
O375        O  0.62778604  0.28961636  0.68678770    -0.77260
O376        O  0.71149816  0.32812821  0.75480022    -0.82460
C377        C  0.69349324  0.38935588  0.70051730     0.98580
C378        C  0.73777335  0.33639045  0.74654524     1.04490
O379        O  0.70448372  0.37618612  0.67726734    -0.78100
C380        C  0.61388905  0.31011810  0.70159840     1.02790
C381        C  0.75201157  0.48649833  0.75817656     0.00400
C382        C  0.75025213  0.51701672  0.76001442     0.00400
Fe383      Fe  0.77497454  0.67347248  0.83864130     1.65780
Fe384      Fe  0.83071788  0.67219220  0.78489061     1.73250
Fe385      Fe  0.83039416  0.72764670  0.83929066     1.54410
O386        O  0.78979837  0.74927631  0.84514375    -0.81830
O387        O  0.87412848  0.67373810  0.80214112    -0.80140
O388        O  0.75341897  0.71472465  0.84098790    -0.84340
O389        O  0.78915246  0.67898188  0.88278115    -0.79200
O390        O  0.83261374  0.74922165  0.79809637    -0.80970
O391        O  0.82474995  0.62827587  0.79985307    -0.83710
C392        C  0.80742567  0.69629202  0.89676799     0.97050
C393        C  0.76222592  0.74183167  0.84411759     1.04490
O394        O  0.81237133  0.69073360  0.82134597    -1.12700
O395        O  0.79053206  0.67005055  0.76198023    -0.75130
O396        O  0.75457977  0.66741773  0.79713604    -0.78620
O397        O  0.82808949  0.71127212  0.88328390    -0.79310
C398        C  0.76311880  0.66792956  0.76975731     0.95950
O399        O  0.79092394  0.62950487  0.83737102    -0.77260
O400        O  0.83660591  0.71284849  0.76336681    -0.82460
C401        C  0.88796094  0.69450364  0.81651658     0.98580
C402        C  0.83478349  0.74041431  0.77087266     1.04490
O403        O  0.87444440  0.71299771  0.83397802    -0.78100
C404        C  0.80638908  0.61515897  0.81773737     1.02790
Fe405      Fe  0.82675294  0.77682540  0.67982057     1.65780
Fe406      Fe  0.77354011  0.83239999  0.67989999     1.73250
Fe407      Fe  0.82836070  0.83146268  0.73388338     1.54420
O408        O  0.83881489  0.79034894  0.75346663    -0.81830
O409        O  0.79360357  0.87454706  0.67725910    -0.80140
O410        O  0.82537118  0.75453052  0.72053552    -0.84340
O411        O  0.87113835  0.78925193  0.68914483    -0.79200
O412        O  0.78779184  0.82965632  0.75654407    -0.80970
O413        O  0.78568172  0.82164112  0.63579564    -0.83710
C414        C  0.88489001  0.81030372  0.70330015     0.97050
C415        C  0.83334686  0.76298766  0.74680492     1.04490
O416        O  0.80991155  0.81384994  0.69753700    -1.12700
O417        O  0.74999144  0.79265336  0.68272368    -0.75130
O418        O  0.78463187  0.75813274  0.67018389    -0.78620
O419        O  0.87093821  0.83301613  0.71442545    -0.79310
C420        C  0.75749583  0.76582341  0.67599580     0.95950
O421        O  0.82881470  0.79552997  0.63710012    -0.77260
O422        O  0.75443485  0.84320945  0.72113929    -0.82460
C423        C  0.80441628  0.88882894  0.69985440     0.98580
C424        C  0.76120418  0.83669635  0.74824260     1.04490
O425        O  0.81865451  0.87547316  0.72103322    -0.78100
C426        C  0.80633363  0.80634593  0.62272001     1.02790
Fe427      Fe  0.66999237  0.83007200  0.78530971     1.65780
Fe428      Fe  0.67109325  0.77778544  0.84178872     1.73250
Fe429      Fe  0.72468561  0.83284892  0.83928203     1.54410
O430        O  0.74387621  0.84229724  0.79790494    -0.81830
O431        O  0.66926327  0.79817335  0.88393809    -0.80140
O432        O  0.71063395  0.82843278  0.76254972    -0.84340
O433        O  0.67910498  0.87465387  0.79689380    -0.79200
O434        O  0.74758699  0.79246060  0.83781942    -0.80970
O435        O  0.62684311  0.78998640  0.83199440    -0.83710
C436        C  0.69358602  0.88881506  0.81743353     0.97050
C437        C  0.73706068  0.83616374  0.77075055     1.04490
O438        O  0.68822203  0.81393861  0.82243248    -1.12700
O439        O  0.67295945  0.75359026  0.80221100    -0.75130
O440        O  0.66029446  0.78777279  0.76736665    -0.78620
O441        O  0.70501870  0.87536952  0.84025985    -0.79310
C442        C  0.66587090  0.76072429  0.77537910     0.95950
O443        O  0.62730276  0.83217129  0.80436774    -0.77260
O444        O  0.71261433  0.75894701  0.85186650    -0.82460
C445        C  0.69183725  0.80976196  0.89762153     0.98580
C446        C  0.73958721  0.76587003  0.84501775     1.04490
O447        O  0.71249097  0.82402740  0.88358447    -0.78100
C448        C  0.61324646  0.81021103  0.81659319     1.02790
Fe449      Fe  0.72349205  0.67357928  0.67960240     1.65780
Fe450      Fe  0.67130325  0.67031630  0.73593581     1.73250
Fe451      Fe  0.66744435  0.72606841  0.68332402     1.54420
O452        O  0.70749885  0.74972179  0.68466351    -0.81830
O453        O  0.62667936  0.67955300  0.72512826    -0.80140
O454        O  0.74135477  0.71558801  0.66934968    -0.84340
O455        O  0.70299079  0.67165263  0.63753799    -0.79200
O456        O  0.65806341  0.74419185  0.72546656    -0.80970
O457        O  0.66949625  0.62806579  0.71570244    -0.83710
C458        C  0.69056778  0.69399221  0.62421013     0.97050
C459        C  0.73400146  0.74246335  0.67631119     1.04490
O460        O  0.68701895  0.68959861  0.69922114    -1.12700
O461        O  0.71332876  0.66037342  0.75348451    -0.75130
O462        O  0.74732452  0.67563538  0.71952280    -0.78620
O463        O  0.67608985  0.71432726  0.63870174    -0.79310
C464        C  0.74006447  0.66758306  0.74610100     0.95950
O465        O  0.71224550  0.62909185  0.68896584    -0.77260
O466        O  0.67355190  0.71040035  0.75955034    -0.82460
C467        C  0.61206253  0.69406099  0.70500701     0.98580
C468        C  0.66544299  0.73696071  0.75226039     1.04490
O469        O  0.62515495  0.70594340  0.68223522    -0.78100
C470        C  0.69204321  0.61471409  0.70361013     1.02790
C471        C  0.48387541  0.75140059  0.76286034     0.00400
C472        C  0.51432447  0.75385961  0.76037133     0.00400
Fe473      Fe  0.16998986  0.72723257  0.83598603     1.65780
Fe474      Fe  0.17233310  0.67153765  0.78323198     1.73250
Fe475      Fe  0.22464800  0.67349011  0.83925499     1.54420
O476        O  0.24307255  0.71488610  0.85047899    -0.81830
O477        O  0.16950065  0.62970518  0.80377050    -0.80140
O478        O  0.21063083  0.74994195  0.83412286    -0.84340
O479        O  0.17935609  0.71551564  0.88057647    -0.79200
O480        O  0.24849095  0.67677863  0.79973609    -0.80970
O481        O  0.12774793  0.68187374  0.79434031    -0.83710
C482        C  0.19296049  0.69425001  0.89454641     0.97050
C483        C  0.23677862  0.74180298  0.84288808     1.04490
O484        O  0.18859298  0.69046736  0.81982219    -1.12700
O485        O  0.17492423  0.71126350  0.75944833    -0.75130
O486        O  0.15981537  0.74512162  0.79372915    -0.78620
O487        O  0.20346732  0.67113346  0.88082963    -0.79310
C488        C  0.16624702  0.73764327  0.76669505     0.95950
O489        O  0.12758224  0.70758471  0.83779456    -0.77260
O490        O  0.21467911  0.66095074  0.76577388    -0.82460
C491        C  0.19225157  0.61553735  0.81430691     0.98580
C492        C  0.24132379  0.66896964  0.77309553     1.04490
O493        O  0.21328271  0.62911441  0.82858945    -0.78100
C494        C  0.11381509  0.69644000  0.81500934     1.02790
Fe495      Fe  0.22380372  0.83261779  0.68095233     1.65780
Fe496      Fe  0.17028762  0.77773008  0.67676350     1.73250
Fe497      Fe  0.16768875  0.82975734  0.73311555     1.54420
O498        O  0.20729943  0.82724181  0.75717920    -0.81830
O499        O  0.12582548  0.78945357  0.68646645    -0.80140
O500        O  0.24127490  0.84272798  0.72332434    -0.84340
O501        O  0.20403813  0.87509584  0.67906720    -0.79200
O502        O  0.15715062  0.78754031  0.75055006    -0.80970
O503        O  0.16893002  0.79857405  0.63480252    -0.83710
C504        C  0.19184285  0.88852706  0.70152381     0.97050
C505        C  0.23367382  0.83605451  0.75021237     1.04490
O506        O  0.18693899  0.81376027  0.69656337    -1.12700
O507        O  0.21179083  0.75923645  0.66656178    -0.75130
O508        O  0.24662771  0.79195390  0.68288089    -0.78620
O509        O  0.17756938  0.87414641  0.72197789    -0.79310
C510        C  0.23861129  0.76570298  0.67427077     0.95950
O511        O  0.21275306  0.82349179  0.63629346    -0.77260
O512        O  0.17268559  0.75375516  0.71644215    -0.82460
C513        C  0.11204712  0.81020392  0.70102448     0.98580
C514        C  0.16493818  0.76087080  0.74313352     1.04490
O515        O  0.12601326  0.83264434  0.71237489    -0.78100
C516        C  0.19210690  0.80966604  0.62168054     1.02790
Fe517      Fe  0.32803611  0.77861788  0.83681937     1.65780
Fe518      Fe  0.32567374  0.83428039  0.78431160     1.73250
Fe519      Fe  0.27322947  0.83242766  0.84022466     1.54420
O520        O  0.25468203  0.79098497  0.85089613    -0.81830
O521        O  0.32863585  0.87583367  0.80513974    -0.80140
O522        O  0.28734282  0.75599778  0.83470579    -0.84340
O523        O  0.31864446  0.79023083  0.88136571    -0.79200
O524        O  0.24948114  0.82945300  0.80050286    -0.80970
O525        O  0.37010629  0.82402671  0.79552435    -0.83710
C526        C  0.30496089  0.81123342  0.89566041     0.97050
C527        C  0.26108096  0.76411203  0.84316172     1.04490
O528        O  0.30937753  0.81541421  0.82083049    -1.12700
O529        O  0.32306651  0.79461974  0.76041313    -0.75130
O530        O  0.33831183  0.76079307  0.79458204    -0.78620
O531        O  0.29398147  0.83432900  0.88222880    -0.79310
C532        C  0.33190577  0.76829137  0.76757797     0.95950
O533        O  0.37059824  0.79811793  0.83877609    -0.77260
O534        O  0.28347722  0.84507029  0.76672427    -0.82460
C535        C  0.30572251  0.89013268  0.81504764     0.98580
C536        C  0.25676184  0.83726308  0.77391023     1.04490
O537        O  0.28473661  0.87691739  0.82973183    -0.78100
C538        C  0.38424458  0.80971084  0.81616481     1.02790
Fe539      Fe  0.27516687  0.67440449  0.68054723     1.65780
Fe540      Fe  0.32903894  0.72884383  0.67743428     1.73250
Fe541      Fe  0.33075426  0.67636385  0.73332920     1.54420
O542        O  0.29089860  0.67895887  0.75690404    -0.81830
O543        O  0.37324487  0.71694639  0.68779026    -0.80140
O544        O  0.25710307  0.66406362  0.72254902    -0.84340
O545        O  0.29459413  0.63191250  0.67842209    -0.79200
O546        O  0.34127904  0.71848035  0.75119185    -0.80970
O547        O  0.33108086  0.70813569  0.63543359    -0.83710
C548        C  0.30598639  0.61811268  0.70102493     0.97050
C549        C  0.26453552  0.67037370  0.74958216     1.04490
O550        O  0.31200704  0.69277424  0.69672325    -1.12700
O551        O  0.28778405  0.74767912  0.66664938    -0.75130
O552        O  0.25270886  0.71518879  0.68271792    -0.78620
O553        O  0.32051137  0.63200811  0.72172390    -0.79310
C554        C  0.26090547  0.74140100  0.67428250     0.95950
O555        O  0.28697685  0.68368635  0.63620260    -0.77260
O556        O  0.32603272  0.75249366  0.71721822    -0.82460
C557        C  0.38684479  0.69610326  0.70231977     0.98580
C558        C  0.33349418  0.74518734  0.74391593     1.04490
O559        O  0.37276903  0.67350030  0.71318364    -0.78100
C560        C  0.30809109  0.69709388  0.62193131     1.02790
C561        C  0.01478041  0.75713536  0.76225083     0.00400
C562        C  0.98415716  0.75631787  0.76197241     0.00400
C563        C  0.25061426  0.75302916  0.52390052     0.00400
C564        C  0.25022230  0.75244995  0.49328343     0.00400
C565        C  0.98419063  0.75070984  0.26197678     0.00400
C566        C  0.01480966  0.75023910  0.26278214     0.00400
Fe567      Fe  0.27487446  0.82912900  0.18097348     1.65780
Fe568      Fe  0.33044686  0.82704750  0.23351185     1.73250
Fe569      Fe  0.32876862  0.77459169  0.17736677     1.54410
O570        O  0.28734108  0.75598327  0.16668335    -0.81830
O571        O  0.37202257  0.83008960  0.21287611    -0.80140
O572        O  0.25237967  0.78849325  0.18327553    -0.84340
O573        O  0.28631053  0.81970175  0.13659202    -0.79200
O574        O  0.32598506  0.75072663  0.21702676    -0.80970
O575        O  0.32000283  0.87160199  0.22219773    -0.83710
C576        C  0.30733564  0.80639247  0.12205740     0.97050
C577        C  0.26050011  0.76232164  0.17454445     1.04490
O578        O  0.31169177  0.81062423  0.19693082    -1.12700
O579        O  0.29083663  0.82428000  0.25729017    -0.75130
O580        O  0.25713591  0.83969980  0.22309532    -0.78620
O581        O  0.33050430  0.79535394  0.13532076    -0.79310
C582        C  0.26455497  0.83316125  0.25007023     0.95950
O583        O  0.29455798  0.87137672  0.17862617    -0.77260
O584        O  0.34119399  0.78473973  0.25108535    -0.82460
C585        C  0.38630900  0.80723625  0.20280807     0.98580
C586        C  0.33356978  0.75796840  0.24372432     1.04490
O587        O  0.37315560  0.78632410  0.18790594    -0.78100
C588        C  0.30564653  0.88535277  0.20126062     1.02790
Fe589      Fe  0.22494615  0.83025957  0.33992825     1.65780
Fe590      Fe  0.17253204  0.83264686  0.28394607     1.73250
Fe591      Fe  0.17005511  0.77682491  0.33652472     1.54410
O592        O  0.21071439  0.75405612  0.33442717    -0.81830
O593        O  0.12809364  0.82319546  0.29564666    -0.80140
O594        O  0.24339418  0.78886033  0.35075471    -0.84340
O595        O  0.20398267  0.83254826  0.38162752    -0.79200
O596        O  0.15972766  0.75881273  0.29435733    -0.80970
O597        O  0.17036428  0.87480732  0.30410501    -0.83710
C598        C  0.19325225  0.80952287  0.39521735     0.97050
C599        C  0.23697121  0.76204594  0.34299516     1.04490
O600        O  0.18874244  0.81358305  0.32048301    -1.12700
O601        O  0.21476235  0.84250902  0.26619309    -0.75130
O602        O  0.24865628  0.82712251  0.30028612    -0.78620
O603        O  0.17950157  0.78845353  0.38109588    -0.79310
C604        C  0.24142257  0.83468025  0.27359948     0.95950
O605        O  0.21366216  0.87458933  0.32976944    -0.77260
O606        O  0.17442599  0.79274058  0.26012664    -0.82460
C607        C  0.11393925  0.80861767  0.31610346     0.98580
C608        C  0.16593523  0.76631120  0.26732021     1.04490
O609        O  0.12756575  0.79651666  0.33846844    -0.78100
C610        C  0.19304450  0.88855373  0.31530414     1.02790
Fe611      Fe  0.32529388  0.66833819  0.28402833     1.65780
Fe612      Fe  0.32821042  0.72450724  0.33651010     1.73250
Fe613      Fe  0.27290578  0.67126182  0.34016866     1.54420
O614        O  0.24911867  0.67357882  0.30036814    -0.81830
O615        O  0.31931813  0.71309317  0.38109202    -0.80140
O616        O  0.28309457  0.65885688  0.26608373    -0.84340
O617        O  0.32701388  0.62614150  0.30412464    -0.79200
O618        O  0.25442171  0.71273962  0.35022391    -0.80970
O619        O  0.37080340  0.70482748  0.33801464    -0.83710
C620        C  0.30459132  0.61260983  0.31607434     0.97050
C621        C  0.25635471  0.66622215  0.27360215     1.04490
O622        O  0.30922304  0.68769543  0.32060144    -1.12700
O623        O  0.33812693  0.74243625  0.29438525    -0.75130
O624        O  0.32393751  0.70822877  0.26012933    -0.78620
O625        O  0.28428594  0.62680158  0.33074938    -0.79310
C626        C  0.33221540  0.73475150  0.26734053     0.95950
O627        O  0.36978311  0.67722132  0.29573121    -0.77260
O628        O  0.28758029  0.74753159  0.33493653    -0.82460
C629        C  0.30509748  0.69263096  0.39553063     0.98580
C630        C  0.26116071  0.73959660  0.34303230     1.04490
O631        O  0.29346315  0.66978753  0.38226354    -0.78100
C632        C  0.38418832  0.69205439  0.31584445     1.02790
Fe633      Fe  0.16718291  0.67401731  0.23317062     1.65780
Fe634      Fe  0.16977542  0.72645170  0.17718410     1.73250
Fe635      Fe  0.22317092  0.67137418  0.18075914     1.54410
O636        O  0.24073975  0.66108745  0.22302963    -0.81830
O637        O  0.16814741  0.70581944  0.13507646    -0.80140
O638        O  0.20682008  0.67628294  0.25715120    -0.84340
O639        O  0.17725068  0.62935230  0.22187729    -0.79200
O640        O  0.24611307  0.71185549  0.18288721    -0.80970
O641        O  0.12531202  0.71504157  0.18705486    -0.83710
C642        C  0.19201102  0.61532203  0.20138038     0.97050
C643        C  0.23318844  0.66755527  0.25000892     1.04490
O644        O  0.18636706  0.69020618  0.19665913    -1.12700
O645        O  0.17239401  0.75022972  0.21701193    -0.75130
O646        O  0.15683865  0.71634694  0.25092717    -0.78620
O647        O  0.20336774  0.62903335  0.17871776    -0.79310
C648        C  0.16462578  0.74305873  0.24366178     0.95950
O649        O  0.12532650  0.67161642  0.21256459    -0.77260
O650        O  0.21130269  0.74476658  0.16690164    -0.82460
C651        C  0.19125252  0.69476565  0.12172713     0.98580
C652        C  0.23813959  0.73815005  0.17445648     1.04490
O653        O  0.21195962  0.68077420  0.13612985    -0.78100
C654        C  0.11149500  0.69437417  0.20157265     1.02790
C655        C  0.24805884  0.75276942  0.99297482     0.00400
C656        C  0.24866731  0.75190308  0.02361898     0.00400
C657        C  0.25036791  0.51548721  0.25536603     0.00400
C658        C  0.24987237  0.48484325  0.25536712     0.00400
C659        C  0.24985472  0.25090707  0.99144362     0.00400
C660        C  0.24729931  0.24777087  0.02180949     0.00400
C661        C  0.24934192  0.98541257  0.25588077     0.00400
C662        C  0.25246721  0.01578821  0.25852031     0.00400
Fe663      Fe  0.27562414  0.33010389  0.33649765     1.65780
Fe664      Fe  0.33003333  0.27533552  0.33694476     1.73250
Fe665      Fe  0.32954093  0.32860608  0.28106634     1.54410
O666        O  0.28818703  0.32899075  0.25938391    -0.81830
O667        O  0.37379763  0.28833139  0.32788781    -0.80140
O668        O  0.25459406  0.33825219  0.29586091    -0.84340
O669        O  0.29375588  0.37336721  0.33604876    -0.79200
O670        O  0.33739232  0.28668712  0.26166201    -0.80970
O671        O  0.33178040  0.29461456  0.37946222    -0.83710
C672        C  0.30645423  0.38694344  0.31397037     0.97050
C673        C  0.26146560  0.33467874  0.26830614     1.04490
O674        O  0.31208539  0.31175251  0.31844314    -1.12700
O675        O  0.28923199  0.25518762  0.34626404    -0.75130
O676        O  0.25331073  0.28927153  0.33670860    -0.78620
O677        O  0.32205931  0.37300787  0.29411956    -0.79310
C678        C  0.26189329  0.26234590  0.34169969     0.95950
O679        O  0.28976825  0.32258018  0.38042717    -0.77260
O680        O  0.32883388  0.25184727  0.29707143    -0.82460
C681        C  0.38736244  0.30763379  0.31152052     0.98580
C682        C  0.33379158  0.25942096  0.26992850     1.04490
O683        O  0.37335094  0.32897583  0.29807158    -0.78100
C684        C  0.31026604  0.30735752  0.39372787     1.02790
Fe685      Fe  0.22553098  0.17101885  0.33476947     1.65780
Fe686      Fe  0.17106764  0.22522884  0.33641927     1.73250
Fe687      Fe  0.16949012  0.17091824  0.28194083     1.54410
O688        O  0.20915223  0.17321003  0.25817638    -0.81830
O689        O  0.12709360  0.21231291  0.32733356    -0.80140
O690        O  0.24392654  0.16095435  0.29260991    -0.84340
O691        O  0.20677851  0.12825761  0.33722559    -0.79200
O692        O  0.15900745  0.21200092  0.26254352    -0.80970
O693        O  0.16986017  0.20616222  0.37910013    -0.83710
C694        C  0.19504458  0.11382193  0.31521019     0.97050
C695        C  0.23602024  0.16649588  0.26549619     1.04490
O696        O  0.18839143  0.18869690  0.31809445    -1.12700
O697        O  0.21215901  0.24488840  0.34626088    -0.75130
O698        O  0.24789312  0.21179030  0.33296888    -0.78620
O699        O  0.17978012  0.12698887  0.29461836    -0.79310
C700        C  0.23944893  0.23817372  0.34066474     0.95950
O701        O  0.21355341  0.18076577  0.37920288    -0.77260
O702        O  0.17261320  0.24754987  0.29573870    -0.82460
C703        C  0.11333919  0.19127028  0.31329256     0.98580
C704        C  0.16560623  0.23909884  0.26919936     1.04490
O705        O  0.12727077  0.16872339  0.30195758    -0.78100
C706        C  0.19276810  0.19535289  0.39291752     1.02790
Fe707      Fe  0.17182452  0.27521260  0.17763141     1.65780
Fe708      Fe  0.16958984  0.32982851  0.23199370     1.73250
Fe709      Fe  0.22430274  0.33146935  0.17775741     1.54420
O710        O  0.24831216  0.29177914  0.17967856    -0.81830
O711        O  0.17779584  0.37399428  0.21891572    -0.80140
O712        O  0.21388674  0.25687573  0.16793385    -0.84340
O713        O  0.16963934  0.29365881  0.13468922    -0.79200
O714        O  0.24383290  0.34175500  0.21881685    -0.80970
O715        O  0.12642567  0.33001934  0.21334719    -0.83710
C716        C  0.19150401  0.30577332  0.12040103     0.97050
C717        C  0.24099970  0.26486962  0.17306606     1.04490
O718        O  0.18815991  0.31250176  0.19543794    -1.12700
O719        O  0.16084421  0.28871846  0.25182692    -0.75130
O720        O  0.17337891  0.25291101  0.21847386    -0.78620
O721        O  0.21169131  0.32142600  0.13373247    -0.79310
C722        C  0.16625806  0.26143066  0.24498301     0.95950
O723        O  0.12746867  0.28707770  0.18672131    -0.77260
O724        O  0.21043051  0.32912009  0.25440980    -0.82460
C725        C  0.19227510  0.38766686  0.19815141     0.98580
C726        C  0.23709111  0.33562981  0.24597815     1.04490
O727        O  0.20410476  0.37368361  0.17585761    -0.78100
C728        C  0.11312006  0.30733224  0.20137761     1.02790
Fe729      Fe  0.33093597  0.22505239  0.17816087     1.65780
Fe730      Fe  0.32793664  0.16941265  0.23069550     1.73250
Fe731      Fe  0.27507629  0.17266278  0.17526783     1.54420
O732        O  0.25745432  0.21490963  0.16498502    -0.81830
O733        O  0.33013528  0.12752382  0.21004507    -0.80140
O734        O  0.29111788  0.24884540  0.18110255    -0.84340
O735        O  0.32079593  0.21385632  0.13375088    -0.79200
O736        O  0.25177316  0.17526514  0.21542723    -0.80970
O737        O  0.37244731  0.17932276  0.21927608    -0.83710
C738        C  0.30670930  0.19314109  0.11950552     0.97050
C739        C  0.26464346  0.24165991  0.17268462     1.04490
O740        O  0.31169226  0.18864024  0.19430200    -1.12700
O741        O  0.32532146  0.20937349  0.25421218    -0.75130
O742        O  0.34180821  0.24267302  0.22014930    -0.78620
O743        O  0.29522536  0.17042935  0.13304205    -0.79310
C744        C  0.33397069  0.23571830  0.24687383     0.95950
O745        O  0.37276197  0.20430437  0.17552344    -0.77260
O746        O  0.28594740  0.15877621  0.24865845    -0.82460
C747        C  0.30719111  0.11388846  0.19916673     0.98580
C748        C  0.25914441  0.16649761  0.24175617     1.04490
O749        O  0.28632673  0.12799743  0.18505575    -0.78100
C750        C  0.38650897  0.19319210  0.19829414     1.02790
C751        C  0.98458534  0.24995324  0.25911419     0.00400
C752        C  0.01524064  0.24982204  0.25851830     0.00400
C753        C  0.04257193  0.26092429  0.21037639    -0.21470
C754        C  0.03289683  0.27079205  0.23893225    -0.09510
C755        C  0.04474464  0.29784683  0.25075748     0.29350
C756        C  0.06848334  0.31275044  0.23583259    -0.21470
C757        C  0.08089053  0.30073534  0.20898923    -0.09520
C758        C  0.06605617  0.27588337  0.19527942     0.29360
F759        F  0.07629993  0.26399405  0.16881946    -0.20040
H760        H  0.03355551  0.24019439  0.20082312     0.17720
H761        H  0.07917130  0.33179354  0.24702358     0.17730
F762        F  0.03524716  0.30834096  0.27804183    -0.20030
C763        C  0.04563680  0.20234541  0.26360512    -0.21470
C764        C  0.03323585  0.22830001  0.27711323    -0.09510
C765        C  0.04238428  0.23634762  0.30646123     0.29350
C766        C  0.06575512  0.22047666  0.32072645    -0.21470
C767        C  0.08106264  0.19689534  0.30561325    -0.09520
C768        C  0.06929252  0.18656514  0.27772936     0.29360
F769        F  0.08305789  0.16384389  0.26222092    -0.20040
H770        H  0.03868988  0.19578724  0.24098970     0.17720
H771        H  0.07412839  0.22892226  0.34220960     0.17730
F772        F  0.03105294  0.26147355  0.32004467    -0.20030
C773        C  0.24635544  0.04702174  0.30536406    -0.21470
C774        C  0.23333192  0.03377835  0.27961536    -0.09510
C775        C  0.20376933  0.04194734  0.27129764     0.29350
C776        C  0.18897591  0.06558115  0.28639258    -0.21470
C777        C  0.20358160  0.08168021  0.30978052    -0.09520
C778        C  0.23157289  0.07061408  0.32059690     0.29360
F779        F  0.24650682  0.08491670  0.34335737    -0.20040
H780        H  0.26901088  0.04063973  0.31230965     0.17720
H781        H  0.16737158  0.07330240  0.27765825     0.17730
F782        F  0.19047380  0.02923265  0.24665910    -0.20030
C783        C  0.29963414  0.04568300  0.24932670    -0.21470
C784        C  0.27255950  0.03347710  0.23812808    -0.09510
C785        C  0.26187870  0.04298698  0.20975943     0.29350
C786        C  0.27619240  0.06680479  0.19455869    -0.21470
C787        C  0.30122191  0.08176704  0.20755049    -0.09520
C788        C  0.31410054  0.06945440  0.23411811     0.29360
F789        F  0.33847279  0.08259444  0.24746334    -0.20040
H790        H  0.30830957  0.03838995  0.27108795     0.17720
H791        H  0.26580960  0.07546738  0.17407831     0.17730
F792        F  0.23584840  0.03137087  0.19826155    -0.20030
C793        C  0.29605001  0.23844292  0.04859248    -0.21470
C794        C  0.26775665  0.22757283  0.03929975    -0.09510
C795        C  0.25704902  0.20015434  0.05124188     0.29350
C796        C  0.27263318  0.18594798  0.07495524    -0.21470
C797        C  0.29894417  0.19912031  0.08725299    -0.09520
C798        C  0.31173961  0.22426263  0.07218332     0.29360
F799        F  0.33774124  0.23716400  0.08231967    -0.20040
H800        H  0.30480682  0.25937123  0.03926564     0.17720
H801        H  0.26226020  0.16653150  0.08574420     0.17730
F802        F  0.23023902  0.18853057  0.04176071    -0.20030
C803        C  0.20023361  0.25525553  0.05252111    -0.21470
C804        C  0.22674083  0.26735339  0.03998050    -0.09510
C805        C  0.23631121  0.29624409  0.04909519     0.29350
C806        C  0.22151519  0.31120451  0.07281141    -0.21470
C807        C  0.19724391  0.29736548  0.08822220    -0.09520
C808        C  0.18539738  0.27013006  0.07633414     0.29360
F809        F  0.16175652  0.25595767  0.08988638    -0.20040
H810        H  0.19226023  0.23319094  0.04538454     0.17720
H811        H  0.23109331  0.33222164  0.08111081     0.17730
F812        F  0.26178343  0.30860196  0.03717182    -0.20030
C813        C  0.20092304  0.45971733  0.24211869    -0.21470
C814        C  0.23061150  0.46736581  0.23399893    -0.09510
C815        C  0.24361645  0.45381631  0.20833965     0.29350
C816        C  0.22843054  0.43048620  0.19315081    -0.21470
C817        C  0.20032589  0.41987234  0.20377950    -0.09520
C818        C  0.18574369  0.43626322  0.22708620     0.29360
F819        F  0.15819207  0.42753146  0.23752641    -0.20040
H820        H  0.19045130  0.47018015  0.26169188     0.17720
H821        H  0.24034348  0.41847005  0.17536607     0.17730
F822        F  0.27217434  0.46117357  0.19973286    -0.20030
C823        C  0.29832881  0.45854762  0.26877908    -0.21470
C824        C  0.26869666  0.46671470  0.27669890    -0.09510
C825        C  0.25543894  0.45354696  0.30239470     0.29350
C826        C  0.27031103  0.43016237  0.31784698    -0.21470
C827        C  0.29840695  0.41909023  0.30753000    -0.09520
C828        C  0.31319773  0.43502713  0.28407214     0.29360
F829        F  0.34075630  0.42595215  0.27388910    -0.20040
H830        H  0.30905589  0.46879811  0.24925807     0.17720
H831        H  0.25822125  0.41857550  0.33575682     0.17730
F832        F  0.22701264  0.46151202  0.31096234    -0.20030
C833        C  0.18726218  0.56821691  0.23244149    -0.21470
C834        C  0.20030996  0.58310418  0.20741547    -0.09510
C835        C  0.22664356  0.57039119  0.19437508     0.29350
C836        C  0.24145547  0.54609957  0.20852029    -0.21470
C837        C  0.23019470  0.53386030  0.23554345    -0.09520
C838        C  0.20213477  0.54399608  0.24651099     0.29360
F839        F  0.19055927  0.53242253  0.27250683    -0.20040
H840        H  0.16697350  0.57714749  0.24297979     0.17720
H841        H  0.26300430  0.53840822  0.19965846     0.17730
F842        F  0.24010892  0.58347433  0.17006528    -0.20030
C843        C  0.22260098  0.68885665  0.07493094    -0.21470
C844        C  0.19777063  0.70270522  0.08955986    -0.09510
C845        C  0.18593739  0.72960725  0.07699064     0.29350
C846        C  0.20118020  0.74418822  0.05328688    -0.21470
C847        C  0.22804507  0.73207110  0.04139800    -0.09520
C848        C  0.23772607  0.70346674  0.05120030     0.29360
F849        F  0.26339791  0.69099257  0.03977156    -0.20040
H850        H  0.23219943  0.66808395  0.08379698     0.17720
H851        H  0.19333249  0.76621455  0.04585209     0.17730
F852        F  0.16192070  0.74384710  0.08987500    -0.20030
C853        C  0.31195430  0.56812330  0.28197219    -0.21470
C854        C  0.29847385  0.58041748  0.30815718    -0.09510
C855        C  0.27301206  0.56549503  0.32050239     0.29350
C856        C  0.25891370  0.54206265  0.30447939    -0.21470
C857        C  0.27016558  0.53283006  0.27630032    -0.09520
C858        C  0.29779075  0.54464136  0.26602883     0.29360
F859        F  0.30955367  0.53542310  0.23916165    -0.20040
H860        H  0.33159664  0.57880387  0.27191158     0.17720
H861        H  0.23784242  0.53277415  0.31292065     0.17730
F862        F  0.25976576  0.57562192  0.34635293    -0.20030
C863        C  0.22427730  0.93534154  0.32007667    -0.21470
C864        C  0.19916586  0.92061475  0.30696163    -0.09510
C865        C  0.18666648  0.93288132  0.28021391     0.29350
C866        C  0.20169714  0.95619511  0.26486471    -0.21470
C867        C  0.22893583  0.96796369  0.27614431    -0.09520
C868        C  0.23918512  0.95865262  0.30471972     0.29360
F869        F  0.26531907  0.96993220  0.31631876    -0.20040
H870        H  0.23433391  0.92674632  0.34074914     0.17720
H871        H  0.19330036  0.96345763  0.24298601     0.17730
F872        F  0.16211996  0.92006293  0.26687714    -0.20030
C873        C  0.31202934  0.93376177  0.22994158    -0.21470
C874        C  0.29739870  0.91759981  0.20663207    -0.09510
C875        C  0.26983317  0.92912566  0.19518483     0.29350
C876        C  0.25551630  0.95352258  0.20956789    -0.21470
C877        C  0.26855492  0.96712631  0.23511551    -0.09520
C878        C  0.29773646  0.95828904  0.24411797     0.29360
F879        F  0.31102231  0.97127940  0.26861594    -0.20040
H880        H  0.33326754  0.92563132  0.23918129     0.17720
H881        H  0.23308289  0.96023603  0.20221600     0.17730
F882        F  0.25475462  0.91461623  0.17264918    -0.20030
C883        C  0.27640671  0.81383092  0.07538081    -0.21470
C884        C  0.30100762  0.79928145  0.08970376    -0.09510
C885        C  0.31228363  0.77234268  0.07671505     0.29350
C886        C  0.29659609  0.75833582  0.05292037    -0.21470
C887        C  0.26978254  0.77104144  0.04153776    -0.09520
C888        C  0.26072447  0.79971316  0.05171740     0.29360
F889        F  0.23504327  0.81265586  0.04084608    -0.20040
H890        H  0.26726900  0.83467727  0.08459473     0.17720
H891        H  0.30403790  0.73631916  0.04502692     0.17730
F892        F  0.33606483  0.75750065  0.08933611    -0.20030
C893        C  0.04013296  0.73906121  0.21332372    -0.21470
C894        C  0.03274073  0.72987761  0.24277844    -0.09510
C895        C  0.04634813  0.70374445  0.25468816     0.29350
C896        C  0.06942453  0.68902097  0.23866612    -0.21470
C897        C  0.07967946  0.70051068  0.21075839    -0.09520
C898        C  0.06332680  0.72447734  0.19730251     0.29360
F899        F  0.07168810  0.73574352  0.16996300    -0.20040
H900        H  0.02952479  0.75895991  0.20365308     0.17720
H901        H  0.08141055  0.67068115  0.24971920     0.17730
F902        F  0.03908746  0.69397649  0.28289467    -0.20030
C903        C  0.04309739  0.76169822  0.31060071    -0.21470
C904        C  0.03253357  0.77122956  0.28221100    -0.09510
C905        C  0.04392711  0.79808346  0.26974413     0.29350
C906        C  0.06782619  0.81327643  0.28385667    -0.21470
C907        C  0.08148375  0.80143302  0.31017828    -0.09520
C908        C  0.06734108  0.77668775  0.32465229     0.29360
F909        F  0.07895186  0.76479148  0.35049971    -0.20040
H910        H  0.03427386  0.74116316  0.32066976     0.17720
H911        H  0.07773617  0.83246563  0.27224370     0.17730
F912        F  0.03410276  0.80786798  0.24231031    -0.20030
C913        C  0.25601569  0.70463884  0.46368780    -0.21470
C914        C  0.26920284  0.73097089  0.47556547    -0.09510
C915        C  0.29830553  0.73928540  0.46602872     0.29350
C916        C  0.31242655  0.72342130  0.44244901    -0.21470
C917        C  0.29756243  0.69925788  0.42773684    -0.09520
C918        C  0.27009036  0.68867523  0.44013076     0.29360
F919        F  0.25485701  0.66536371  0.42710995    -0.20040
H920        H  0.23363008  0.69781157  0.47101890     0.17720
H921        H  0.33364732  0.73204236  0.43367483     0.17730
F922        F  0.31176190  0.76444647  0.47746279    -0.20030
C923        C  0.24386017  0.79925641  0.46249220    -0.21470
C924        C  0.23088814  0.77334798  0.47537994    -0.09510
C925        C  0.20161422  0.76471807  0.46664525     0.29350
C926        C  0.18701977  0.77982077  0.44288949    -0.21470
C927        C  0.20154788  0.80356678  0.42730617    -0.09520
C928        C  0.22931951  0.81446844  0.43878093     0.29360
F929        F  0.24438226  0.83723065  0.42469049    -0.20040
H930        H  0.26641347  0.80626362  0.46915396     0.17720
H931        H  0.16563833  0.77095362  0.43474031     0.17730
F932        F  0.18841031  0.73993742  0.47908015    -0.20030
C933        C  0.27751210  0.69029537  0.57495604    -0.21470
C934        C  0.30211361  0.70445836  0.58961243    -0.09510
C935        C  0.31374958  0.73138799  0.57701153     0.29350
C936        C  0.29829855  0.74585203  0.55337612    -0.21470
C937        C  0.27145693  0.73354415  0.54170332    -0.09520
C938        C  0.26212343  0.70482566  0.55138288     0.29360
F939        F  0.23644813  0.69223573  0.54011751    -0.20040
H940        H  0.26813770  0.66945025  0.58385030     0.17720
H941        H  0.30594977  0.76789554  0.54584142     0.17730
F942        F  0.33764712  0.74580228  0.58989254    -0.20030
C943        C  0.26860287  0.81527561  0.93852824    -0.21470
C944        C  0.29679437  0.80501438  0.92775344    -0.09510
C945        C  0.31161966  0.78168076  0.94386271     0.29350
C946        C  0.29672345  0.76642735  0.96735725    -0.21470
C947        C  0.26702700  0.77430950  0.97531803    -0.09520
C948        C  0.25369664  0.79988303  0.96189452     0.29360
F949        F  0.22513976  0.80831781  0.96949581    -0.20040
H950        H  0.25647764  0.83301025  0.92666644     0.17720
H951        H  0.30741578  0.74688524  0.97765719     0.17730
F952        F  0.33923780  0.77155708  0.93489993    -0.20030
C953        C  0.20282098  0.76050307  0.55315805    -0.21470
C954        C  0.22979958  0.77267745  0.54169017    -0.09510
C955        C  0.23927210  0.80127707  0.55169165     0.29350
C956        C  0.22377905  0.81585303  0.57523571    -0.21470
C957        C  0.19884579  0.80191777  0.58952376    -0.09520
C958        C  0.18725420  0.77501492  0.57673294     0.29360
F959        F  0.16316901  0.76069994  0.58931513    -0.20040
H960        H  0.19511575  0.73850306  0.54549655     0.17720
H961        H  0.23319468  0.83663202  0.58429041     0.17730
F962        F  0.26507362  0.81377050  0.54066059    -0.20030
C963        C  0.04378333  0.80440078  0.75120000    -0.21470
C964        C  0.03209661  0.77667767  0.74113960    -0.09510
C965        C  0.04168569  0.76498027  0.71319475     0.29350
C966        C  0.06516744  0.77902923  0.69733395    -0.21470
C967        C  0.07990069  0.80462805  0.70941339    -0.09520
C968        C  0.06739922  0.81849552  0.73542473     0.29360
F969        F  0.08021576  0.84357158  0.74775433    -0.20040
H970        H  0.03631340  0.81386966  0.77257305     0.17720
H971        H  0.07389644  0.76793797  0.67724550     0.17730
F972        F  0.03048238  0.73831075  0.70278867    -0.20030
C973        C  0.24433319  0.70671761  0.96070634    -0.21470
C974        C  0.22971172  0.73108148  0.97489641    -0.09510
C975        C  0.19956134  0.73760203  0.96725243     0.29350
C976        C  0.18560042  0.72222627  0.94322998    -0.21470
C977        C  0.20148986  0.70008632  0.92657380    -0.09520
C978        C  0.23036188  0.69110109  0.93691944     0.29360
F979        F  0.24683759  0.67014569  0.92155719    -0.20040
H980        H  0.26759913  0.70137369  0.96644430     0.17720
H981        H  0.16339571  0.72963564  0.93583973     0.17730
F982        F  0.18465636  0.76068292  0.98105138    -0.20030
C983        C  0.07050456  0.73212344  0.82204749    -0.21470
C984        C  0.08174390  0.70518458  0.80911724    -0.09510
C985        C  0.06568033  0.69230847  0.78460605     0.29350
C986        C  0.04166657  0.70807697  0.77109813    -0.21470
C987        C  0.03314161  0.73672892  0.78182686    -0.09520
C988        C  0.04661891  0.74791746  0.80836606     0.29360
F989        F  0.03847667  0.77539408  0.81951216    -0.20040
H990        H  0.08219724  0.74272558  0.84084385     0.17720
H991        H  0.03127132  0.69897868  0.75080604     0.17730
F992        F  0.07495750  0.66590175  0.77183711    -0.20030
C993        C  0.45386649  0.70419371  0.75387337    -0.21470
C994        C  0.46619050  0.73115329  0.74259691    -0.09510
C995        C  0.45730428  0.74138329  0.71387167     0.29350
C996        C  0.43407039  0.72665110  0.69820593    -0.21470
C997        C  0.41881513  0.70187051  0.71123103    -0.09520
C998        C  0.43044088  0.68947184  0.73832701     0.29360
F999        F  0.41690388  0.66539798  0.75176557    -0.20040
H1000       H  0.46079975  0.69578409  0.77584319     0.17720
H1001       H  0.42590536  0.73666736  0.67734419     0.17730
F1002       F  0.46886465  0.76741913  0.70240370    -0.20030
C1003       C  0.45626429  0.79980933  0.77191515    -0.21470
C1004       C  0.46580464  0.77162062  0.78288841    -0.09510
C1005       C  0.45317474  0.76052335  0.80986245     0.29350
C1006       C  0.42891260  0.77573188  0.82360133    -0.21470
C1007       C  0.41658899  0.80199878  0.81035396    -0.09520
C1008       C  0.43199411  0.81503420  0.78552955     0.29360
F1009       F  0.42170964  0.84087093  0.77241703    -0.20040
H1010       H  0.46595693  0.80880833  0.75125608     0.17720
H1011       H  0.41781129  0.76510456  0.84270506     0.17730
F1012       F  0.46250279  0.73362993  0.82141966    -0.20030
C1013       C  0.56696028  0.72757842  0.69818632    -0.21470
C1014       C  0.57992361  0.70180759  0.71179158    -0.09510
C1015       C  0.56570592  0.68969817  0.73778868     0.29350
C1016       C  0.54219802  0.70550090  0.75202926    -0.21470
C1017       C  0.53215879  0.73327671  0.74049759    -0.09520
C1018       C  0.54341297  0.74333383  0.71252789     0.29360
F1019       F  0.53345839  0.76973020  0.70038414    -0.20040
H1020       H  0.57709490  0.73745984  0.67816815     0.17720
H1021       H  0.53344921  0.69724732  0.77341320     0.17730
F1022       F  0.57654911  0.66432141  0.75135254    -0.20030
C1023       C  0.56551280  0.78062408  0.82312157    -0.21470
C1024       C  0.58096940  0.80448380  0.80864148    -0.09510
C1025       C  0.56891933  0.81588681  0.78129661     0.29350
C1026       C  0.54483820  0.80098916  0.76699141    -0.21470
C1027       C  0.53220474  0.77483248  0.77972391    -0.09520
C1028       C  0.54151418  0.76574864  0.80870587     0.29360
F1029       F  0.52957298  0.74058469  0.82164139    -0.20040
H1030       H  0.57397621  0.77138776  0.84422219     0.17720
H1031       H  0.53765352  0.80850447  0.74477873     0.17730
F1032       F  0.58261915  0.83899444  0.76640685    -0.20030
C1033       C  0.92799886  0.81663571  0.73924533    -0.21470
C1034       C  0.91712503  0.80484408  0.71165541    -0.09510
C1035       C  0.93363411  0.78122108  0.69773049     0.29350
C1036       C  0.95760979  0.76716545  0.71307795    -0.21470
C1037       C  0.96579512  0.77662785  0.74226862    -0.09520
C1038       C  0.95195269  0.80250633  0.75455384     0.29360
F1039       F  0.95974074  0.81243314  0.78259025    -0.20040
H1040       H  0.91591591  0.83469976  0.75066658     0.17720
H1041       H  0.96818451  0.74734933  0.70317749     0.17730
F1042       F  0.92474156  0.76971352  0.67062860    -0.20030
C1043       C  0.93541168  0.72437657  0.82436097    -0.21470
C1044       C  0.92003401  0.70121540  0.80861743    -0.09510
C1045       C  0.93146046  0.69208914  0.78013206     0.29350
C1046       C  0.95450417  0.70867524  0.76616572    -0.21470
C1047       C  0.96694022  0.73413199  0.78041093    -0.09520
C1048       C  0.95861499  0.74080949  0.81033515     0.29360
F1049       F  0.97082698  0.76497476  0.82487774    -0.20040
H1050       H  0.92744056  0.73186780  0.84633363     0.17720
H1051       H  0.96100114  0.70306785  0.74316368     0.17730
F1052       F  0.91790547  0.66973864  0.76393345    -0.20030
C1053       C  0.70208665  0.54571712  0.75203492    -0.21470
C1054       C  0.72951544  0.53478311  0.74034862    -0.09510
C1055       C  0.73944672  0.54507026  0.71202312     0.29350
C1056       C  0.72397559  0.56849963  0.69735878    -0.21470
C1057       C  0.69866769  0.58246859  0.71099260    -0.09520
C1058       C  0.68653247  0.56921213  0.73741131     0.29360
F1059       F  0.66176324  0.58117063  0.75114356    -0.20040
H1060       H  0.69394621  0.53766319  0.77372158     0.17720
H1061       H  0.73375414  0.57779472  0.67687357     0.17730
F1062       F  0.76570957  0.53454560  0.69998556    -0.20030
C1063       C  0.75736044  0.54660287  0.80765341    -0.21470
C1064       C  0.76975831  0.53477943  0.78094988    -0.09510
C1065       C  0.79865249  0.54428430  0.77181773     0.29350
C1066       C  0.81319132  0.56792786  0.78717578    -0.21470
C1067       C  0.79892270  0.58278128  0.81161364    -0.09520
C1068       C  0.77185352  0.57018581  0.82313178     0.29360
F1069       F  0.75742376  0.58283280  0.84716672    -0.20040
H1070       H  0.73525844  0.53914456  0.81523369     0.17720
H1071       H  0.83413126  0.57664901  0.77785373     0.17730
F1072       F  0.81145986  0.53280999  0.74633262    -0.20030
C1073       C  0.68870938  0.43500775  0.73347724    -0.21470
C1074       C  0.70127904  0.42149107  0.70736840    -0.09510
C1075       C  0.72720856  0.43495799  0.69445058     0.29350
C1076       C  0.74239975  0.45828412  0.70980178    -0.21470
C1077       C  0.73181229  0.46874202  0.73788879    -0.09520
C1078       C  0.70399020  0.45813452  0.74879728     0.29360
F1079       F  0.69308936  0.46809037  0.77577970    -0.20040
H1080       H  0.66863471  0.42554641  0.74391961     0.17720
H1081       H  0.76365386  0.46660687  0.70086016     0.17730
F1082       F  0.73990905  0.42341039  0.66894144    -0.20030
C1083       C  0.81417475  0.43335615  0.78217736    -0.21470
C1084       C  0.80156278  0.42071486  0.80866381    -0.09510
C1085       C  0.77668366  0.43562550  0.82211727     0.29350
C1086       C  0.76215551  0.45937293  0.80682230    -0.21470
C1087       C  0.77234216  0.46870227  0.77822296    -0.09520
C1088       C  0.79944245  0.45677755  0.76682051     0.29360
F1089       F  0.81013498  0.46580808  0.73947104    -0.20040
H1090       H  0.83360109  0.42290525  0.77140382     0.17720
H1091       H  0.74146599  0.46875088  0.81611191     0.17730
F1092       F  0.76418225  0.42511332  0.84812996    -0.20030
C1093       C  0.79523119  0.04714037  0.75026340    -0.21470
C1094       C  0.76858279  0.03515315  0.73784431    -0.09510
C1095       C  0.75933665  0.04460088  0.70898318     0.29350
C1096       C  0.77466342  0.06817471  0.69436408    -0.21470
C1097       C  0.79925686  0.08290531  0.70846668    -0.09520
C1098       C  0.81068275  0.07064914  0.73567599     0.29360
F1099       F  0.83437504  0.08376815  0.75022255    -0.20040
H1100       H  0.80274479  0.03992221  0.77247708     0.17720
H1101       H  0.76538598  0.07688021  0.67337774     0.17730
F1102       F  0.73386748  0.03302290  0.69626077    -0.20030
C1103       C  0.72114907  0.06849271  0.82045879    -0.21470
C1104       C  0.69670130  0.08339815  0.80626459    -0.09510
C1105       C  0.68517601  0.07104835  0.77911593     0.29350
C1106       C  0.70048640  0.04732110  0.76461546    -0.21470
C1107       C  0.72708705  0.03523806  0.77706508    -0.09520
C1108       C  0.73636226  0.04474980  0.80590744     0.29360
F1109       F  0.76180810  0.03310967  0.81864040    -0.20040
H1110       H  0.73047742  0.07722135  0.84142386     0.17720
H1111       H  0.69293271  0.04001767  0.74243111     0.17730
F1112       F  0.66153728  0.08424137  0.76454196    -0.20030
C1113       C  0.74383619  0.95584672  0.80457366    -0.21470
C1114       C  0.72956436  0.96893616  0.77942347    -0.09510
C1115       C  0.69982487  0.96037579  0.77231011     0.29350
C1116       C  0.68596695  0.93660530  0.78807519    -0.21470
C1117       C  0.70164385  0.92089832  0.81104676    -0.09520
C1118       C  0.73000853  0.93220122  0.82049427     0.29360
F1119       F  0.74621424  0.91796993  0.84240334    -0.20040
H1120       H  0.76678380  0.96231439  0.81038769     0.17720
H1121       H  0.66412786  0.92856488  0.78029322     0.17730
F1122       F  0.68537336  0.97295227  0.74827816    -0.20030
C1123       C  0.75261823  0.95484630  0.71130943    -0.21470
C1124       C  0.76669854  0.96888113  0.73606924    -0.09510
C1125       C  0.79672780  0.96129950  0.74312761     0.29350
C1126       C  0.81114515  0.93756709  0.72774702    -0.21470
C1127       C  0.79571999  0.92089525  0.70528992    -0.09520
C1128       C  0.76698308  0.93118971  0.69581380     0.29360
F1129       F  0.75098560  0.91590375  0.67445273    -0.20040
H1130       H  0.72945831  0.96056860  0.70553513     0.17720
H1131       H  0.83324415  0.93025603  0.73554249     0.17730
F1132       F  0.81096713  0.97474355  0.76682822    -0.20030
C1133       C  0.73676994  0.69952325  0.55295088    -0.21470
C1134       C  0.72768491  0.72829496  0.54305387    -0.09510
C1135       C  0.70113326  0.74107765  0.55488205     0.29350
C1136       C  0.68587219  0.72686551  0.57863315    -0.21470
C1137       C  0.69736105  0.70009989  0.59170521    -0.09520
C1138       C  0.72164679  0.68531440  0.57699815     0.29360
F1139       F  0.73298356  0.65890055  0.58787021    -0.20040
H1140       H  0.75707879  0.68924171  0.54377256     0.17720
H1141       H  0.66699967  0.73871126  0.58893625     0.17730
F1142       F  0.69174515  0.76884989  0.54564453    -0.20030
C1143       C  0.79431728  0.75250125  0.55827478    -0.21470
C1144       C  0.77002091  0.76653902  0.54344523    -0.09510
C1145       C  0.76325319  0.79688216  0.55016901     0.29350
C1146       C  0.77845344  0.81173106  0.57374958    -0.21470
C1147       C  0.80054468  0.79651863  0.59103680    -0.09520
C1148       C  0.80967080  0.76730944  0.58171841     0.29360
F1149       F  0.83061175  0.75142295  0.59767833    -0.20040
H1150       H  0.79990393  0.72913146  0.55323530     0.17720
H1151       H  0.77091109  0.83414782  0.58033173     0.17730
F1152       F  0.74003133  0.81116613  0.53600573    -0.20030
C1153       C  0.68574734  0.71870078  0.44430321    -0.21470
C1154       C  0.70146585  0.69600160  0.42822251    -0.09510
C1155       C  0.72990988  0.68652686  0.43931032     0.29350
C1156       C  0.74376538  0.70222309  0.46314674    -0.21470
C1157       C  0.72945172  0.72718626  0.47661957    -0.09520
C1158       C  0.69962425  0.73424403  0.46824914     0.29360
F1159       F  0.68498587  0.75793566  0.48125657    -0.20040
H1160       H  0.66382668  0.72646774  0.43644527     0.17720
H1161       H  0.76676697  0.69642297  0.46947558     0.17730
F1162       F  0.74613882  0.66484976  0.42471209    -0.20030
C1163       C  0.93278247  0.81301967  0.29017926    -0.21470
C1164       C  0.91678065  0.79776089  0.31317930    -0.09510
C1165       C  0.92817756  0.76967896  0.32339919     0.29350
C1166       C  0.95233988  0.75571856  0.30827714    -0.21470
C1167       C  0.96584793  0.76953357  0.28311553    -0.09520
C1168       C  0.95703377  0.79902875  0.27519722     0.29360
F1169       F  0.96992384  0.81316391  0.25119193    -0.20040
H1170       H  0.92472962  0.83463647  0.28180950     0.17720
H1171       H  0.95891547  0.73295843  0.31469169     0.17730
F1172       F  0.91371452  0.75384753  0.34539313    -0.20030
C1173       C  0.76915318  0.81182871  0.44142641    -0.21470
C1174       C  0.79706518  0.80121193  0.43031798    -0.09510
C1175       C  0.81166256  0.77745063  0.44602669     0.29350
C1176       C  0.79659558  0.76200834  0.46923949    -0.21470
C1177       C  0.76703020  0.77018056  0.47731244    -0.09520
C1178       C  0.75406770  0.79622765  0.46447881     0.29360
F1179       F  0.72567313  0.80498603  0.47229905    -0.20040
H1180       H  0.75726720  0.82997430  0.42995302     0.17720
H1181       H  0.80701546  0.74214169  0.47919733     0.17730
F1182       F  0.83907553  0.76700033  0.43679483    -0.20030
C1183       C  0.93244290  0.72851360  0.19782829    -0.21470
C1184       C  0.92025087  0.70123444  0.20897527    -0.09510
C1185       C  0.93507303  0.68700996  0.23353951     0.29350
C1186       C  0.95802620  0.70216855  0.24933118    -0.21470
C1187       C  0.96691009  0.73130645  0.24059280    -0.09520
C1188       C  0.95536749  0.74358769  0.21366877     0.29360
F1189       F  0.96432653  0.77138430  0.20417671    -0.20040
H1190       H  0.92198695  0.74001584  0.17884357     0.17720
H1191       H  0.96719732  0.69217807  0.26978438     0.17730
F1192       F  0.92521415  0.66003343  0.24444161    -0.20030
C1193       C  0.73395089  0.79786101  0.05155272    -0.21470
C1194       C  0.72554049  0.76826802  0.04370074    -0.09510
C1195       C  0.70015137  0.75524662  0.05765469     0.29350
C1196       C  0.68549887  0.77034215  0.08141426    -0.21470
C1197       C  0.69638488  0.79837284  0.09203873    -0.09520
C1198       C  0.71950144  0.81290670  0.07547655     0.29360
F1199       F  0.73017961  0.84035105  0.08431288    -0.20040
H1200       H  0.75334910  0.80833360  0.04081420     0.17720
H1201       H  0.66784759  0.75847154  0.09361358     0.17730
F1202       F  0.69118514  0.72684029  0.05009604    -0.20030
C1203       C  0.81053533  0.72789396  0.07774204    -0.21470
C1204       C  0.79959460  0.70060595  0.09017980    -0.09510
C1205       C  0.77513230  0.68610694  0.07548778     0.29350
C1206       C  0.75943310  0.70086835  0.05217917    -0.21470
C1207       C  0.76799204  0.72999597  0.04300776    -0.09520
C1208       C  0.79464835  0.74267143  0.05467659     0.29360
F1209       F  0.80367495  0.77066964  0.04581785    -0.20040
H1210       H  0.82941382  0.73965968  0.08809715     0.17720
H1211       H  0.73920029  0.69054503  0.04291067     0.17730
F1212       F  0.76431173  0.65922135  0.08566847    -0.20030
C1213       C  0.81155044  0.73042563  0.94175282    -0.21470
C1214       C  0.80052900  0.70325468  0.92912233    -0.09510
C1215       C  0.77611414  0.68866768  0.94382852     0.29350
C1216       C  0.76057605  0.70319081  0.96737857    -0.21470
C1217       C  0.76927460  0.73213319  0.97698595    -0.09520
C1218       C  0.79592945  0.74487468  0.96532264     0.29360
F1219       F  0.80539066  0.77248823  0.97493764    -0.20040
H1220       H  0.83031902  0.74225051  0.93131569     0.17720
H1221       H  0.74030007  0.69285069  0.97651827     0.17730
F1222       F  0.76513012  0.66189947  0.93342036    -0.20030
C1223       C  0.73697340  0.79973913  0.96878570    -0.21470
C1224       C  0.72717227  0.77087058  0.97744160    -0.09510
C1225       C  0.70038015  0.75923338  0.96491772     0.29350
C1226       C  0.68568497  0.77472632  0.94144056    -0.21470
C1227       C  0.69783295  0.80180873  0.92981907    -0.09520
C1228       C  0.72239407  0.81526059  0.94531405     0.29360
F1229       F  0.73439407  0.84186506  0.93570098    -0.20040
H1230       H  0.75735635  0.80924292  0.97859471     0.17720
H1231       H  0.66685140  0.76373039  0.93019499     0.17730
F1232       F  0.69007513  0.73157652  0.97341970    -0.20030
C1233       C  0.70094968  0.25713036  0.55426171    -0.21470
C1234       C  0.72687222  0.26949253  0.54083882    -0.09510
C1235       C  0.73593147  0.29887435  0.54891873     0.29350
C1236       C  0.72127339  0.31415837  0.57252810    -0.21470
C1237       C  0.69751466  0.30028302  0.58863316    -0.09520
C1238       C  0.68613461  0.27241286  0.57779665     0.29360
F1239       F  0.66316758  0.25803745  0.59226489    -0.20040
H1240       H  0.69354972  0.23456621  0.54807882     0.17720
H1241       H  0.73049829  0.33559196  0.58013643     0.17730
F1242       F  0.76078239  0.31154264  0.53607326    -0.20030
C1243       C  0.75654506  0.20231611  0.55236534    -0.21470
C1244       C  0.76775238  0.22960655  0.54070729    -0.09510
C1245       C  0.79582228  0.24037328  0.55092493     0.29350
C1246       C  0.81061042  0.22594133  0.57496002    -0.21470
C1247       C  0.79742817  0.20076931  0.58949848    -0.09520
C1248       C  0.77131991  0.18775788  0.57638839     0.29360
F1249       F  0.75797156  0.16310018  0.58891332    -0.20040
H1250       H  0.73500548  0.19358525  0.54450045     0.17720
H1251       H  0.83083999  0.23637786  0.58412892     0.17730
F1252       F  0.80741891  0.26651388  0.53971964    -0.20030
C1253       C  0.79736830  0.95505228  0.26846226    -0.21470
C1254       C  0.77004476  0.96680915  0.27959289    -0.09510
C1255       C  0.75946012  0.95709004  0.30789412     0.29350
C1256       C  0.77414486  0.93345613  0.32307254    -0.21470
C1257       C  0.79938733  0.91880586  0.31005204    -0.09520
C1258       C  0.81218649  0.93144367  0.28363492     0.29360
F1259       F  0.83687320  0.91876743  0.27039617    -0.20040
H1260       H  0.80598271  0.96253786  0.24675706     0.17720
H1261       H  0.76383385  0.92461088  0.34349361     0.17730
F1262       F  0.73323868  0.96833066  0.31935952    -0.20030
C1263       C  0.74335078  0.95256915  0.21290271    -0.21470
C1264       C  0.73046134  0.96628375  0.23845953    -0.09510
C1265       C  0.70108872  0.95798574  0.24729542     0.29350
C1266       C  0.68635741  0.93389135  0.23286119    -0.21470
C1267       C  0.70071603  0.91766579  0.20942974    -0.09520
C1268       C  0.72859766  0.92862400  0.19825676     0.29360
F1269       F  0.74351425  0.91391382  0.17573371    -0.20040
H1270       H  0.76593816  0.95885862  0.20570270     0.17720
H1271       H  0.66492919  0.92613490  0.24193224     0.17730
F1272       F  0.68794131  0.97112046  0.27179224    -0.20030
C1273       C  0.70010971  0.04417567  0.25005899    -0.21470
C1274       C  0.72793637  0.03258268  0.24005842    -0.09510
C1275       C  0.73979803  0.04265657  0.21239045     0.29350
C1276       C  0.72578808  0.06641831  0.19680404    -0.21470
C1277       C  0.69991629  0.08084314  0.20876043    -0.09520
C1278       C  0.68596281  0.06794169  0.23446084     0.29360
F1279       F  0.66066099  0.08045043  0.24665179    -0.20040
H1280       H  0.69053937  0.03644343  0.27127032     0.17720
H1281       H  0.73699243  0.07548189  0.17695740     0.17730
F1282       F  0.76656240  0.03161675  0.20203528    -0.20030
C1283       C  0.68513899  0.27436443  0.44019078    -0.21470
C1284       C  0.69727244  0.30084725  0.42728159    -0.09510
C1285       C  0.72239379  0.31454811  0.44170520     0.29350
C1286       C  0.73775530  0.29941698  0.46490938    -0.21470
C1287       C  0.72787021  0.27100065  0.47478477    -0.09520
C1288       C  0.70038150  0.25947908  0.46371653     0.29360
F1289       F  0.68984042  0.23240114  0.47363992    -0.20040
H1290       H  0.66580363  0.26327964  0.42993345     0.17720
H1291       H  0.75869846  0.30883006  0.47356480     0.17730
F1292       F  0.73427957  0.34084048  0.43112795    -0.20030
C1293       C  0.93509212  0.21957083  0.32171082    -0.21470
C1294       C  0.91931616  0.19649426  0.30631997    -0.09510
C1295       C  0.93042376  0.18683433  0.27792813     0.29350
C1296       C  0.95399081  0.20268601  0.26380507    -0.21470
C1297       C  0.96698749  0.22810178  0.27774414    -0.09520
C1298       C  0.95841801  0.23552021  0.30744041     0.29360
F1299       F  0.97022296  0.26020056  0.32140266    -0.20040
H1300       H  0.92715016  0.22756864  0.34352130     0.17720
H1301       H  0.96035160  0.19669051  0.24086842     0.17730
F1302       F  0.91601485  0.16484565  0.26197575    -0.20030
C1303       C  0.77780474  0.18868617  0.44189777    -0.21470
C1304       C  0.80124847  0.20366943  0.42627476    -0.09510
C1305       C  0.81143698  0.23175203  0.43768013     0.29350
C1306       C  0.79577896  0.24608211  0.46131295    -0.21470
C1307       C  0.77019910  0.23252327  0.47431338    -0.09520
C1308       C  0.76233093  0.20299893  0.46562037     0.29360
F1309       F  0.73784633  0.18921746  0.47801423    -0.20040
H1310       H  0.76945059  0.16706532  0.43382815     0.17720
H1311       H  0.80223588  0.26882071  0.46791484     0.17730
F1312       F  0.83399885  0.24717608  0.42366235    -0.20030
C1313       C  0.75263773  0.04754121  0.30696558    -0.21470
C1314       C  0.76633746  0.03301613  0.28228789    -0.09510
C1315       C  0.79628649  0.04042228  0.27467906     0.29350
C1316       C  0.81092177  0.06443787  0.28933991    -0.21470
C1317       C  0.79585220  0.08154794  0.31168536    -0.09520
C1318       C  0.76725123  0.07145243  0.32178998     0.29360
F1319       F  0.75163298  0.08700151  0.34325025    -0.20040
H1320       H  0.72960051  0.04192497  0.31324470     0.17720
H1321       H  0.83291746  0.07150852  0.28110287     0.17730
F1322       F  0.81020473  0.02655816  0.25102671    -0.20030
C1323       C  0.93472174  0.27979678  0.19654469    -0.21470
C1324       C  0.91806661  0.30212511  0.21216002    -0.09510
C1325       C  0.92837401  0.31138821  0.24099546     0.29350
C1326       C  0.95225305  0.29603220  0.25510077    -0.21470
C1327       C  0.96644470  0.27153003  0.24073875    -0.09520
C1328       C  0.95861424  0.26449757  0.21074240     0.29360
F1329       F  0.97195928  0.24083796  0.19632861    -0.20040
H1330       H  0.92736021  0.27208916  0.17442888     0.17720
H1331       H  0.95806406  0.30172763  0.27825850     0.17730
F1332       F  0.91298920  0.33245707  0.25730406    -0.20030
C1333       C  0.74527323  0.19940368  0.05322651    -0.21470
C1334       C  0.73371763  0.22613474  0.04063718    -0.09510
C1335       C  0.70503213  0.23640593  0.04967396     0.29350
C1336       C  0.68979679  0.22205870  0.07342958    -0.21470
C1337       C  0.70310952  0.19748215  0.08882236    -0.09520
C1338       C  0.73006231  0.18494516  0.07698490     0.29360
F1339       F  0.74375831  0.16105328  0.09063674    -0.20040
H1340       H  0.76730574  0.19109762  0.04630272     0.17720
H1341       H  0.66901333  0.23213621  0.08174569     0.17730
F1342       F  0.69316810  0.26208373  0.03765768    -0.20030
C1343       C  0.77914246  0.31062295  0.07336028    -0.21470
C1344       C  0.80337619  0.29702111  0.08910226    -0.09510
C1345       C  0.81537927  0.26965428  0.07762112     0.29350
C1346       C  0.80068025  0.25441100  0.05397095    -0.21470
C1347       C  0.77424293  0.26632532  0.04106335    -0.09520
C1348       C  0.76455472  0.29534998  0.04970154     0.29360
F1349       F  0.73924795  0.30763754  0.03731325    -0.20040
H1350       H  0.76945982  0.33173376  0.08132684     0.17720
H1351       H  0.80862647  0.23216755  0.04728927     0.17730
F1352       F  0.83902279  0.25570406  0.09145854    -0.20030
C1353       C  0.70403601  0.24017707  0.96475779    -0.21470
C1354       C  0.73197650  0.22850250  0.97425186    -0.09510
C1355       C  0.74230773  0.20113369  0.96176680     0.29350
C1356       C  0.72661501  0.18758626  0.93769679    -0.21470
C1357       C  0.70049642  0.20131414  0.92551592    -0.09520
C1358       C  0.68818151  0.22659965  0.94085637     0.29360
F1359       F  0.66239940  0.24008082  0.93089038    -0.20040
H1360       H  0.69561272  0.26115943  0.97432595     0.17720
H1361       H  0.73672529  0.16812794  0.92666584     0.17730
F1362       F  0.76902119  0.18903295  0.97096125    -0.20030
C1363       C  0.75933850  0.29644766  0.96478993    -0.21470
C1364       C  0.77194332  0.26926007  0.97508191    -0.09510
C1365       C  0.80060171  0.26044256  0.96454080     0.29350
C1366       C  0.81451253  0.27653441  0.94101419    -0.21470
C1367       C  0.79990874  0.30158028  0.92769300    -0.09520
C1368       C  0.77334454  0.31282941  0.94164498     0.29360
F1369       F  0.75895725  0.33772753  0.93073535    -0.20040
H1370       H  0.73744808  0.30380720  0.97311100     0.17720
H1371       H  0.83506798  0.26741939  0.93119208     0.17730
F1372       F  0.81375986  0.23472092  0.97499905    -0.20030
C1373       C  0.68597222  0.43236672  0.28173923    -0.21470
C1374       C  0.69985932  0.41856384  0.30701075    -0.09510
C1375       C  0.72626987  0.43206829  0.31893196     0.29350
C1376       C  0.74056054  0.45567993  0.30328136    -0.21470
C1377       C  0.72857325  0.46655640  0.27594861    -0.09520
C1378       C  0.70028437  0.45598157  0.26620802     0.29360
F1379       F  0.68779220  0.46661997  0.24022779    -0.20040
H1380       H  0.66547937  0.42290660  0.27210548     0.17720
H1381       H  0.76225208  0.46391591  0.31127548     0.17730
F1382       F  0.74029221  0.42029081  0.34361558    -0.20030
C1383       C  0.79659979  0.45743707  0.24637913    -0.21470
C1384       C  0.76866978  0.46736800  0.23521329    -0.09510
C1385       C  0.75837041  0.45635785  0.20719194     0.29350
C1386       C  0.77384320  0.43273714  0.19265166    -0.21470
C1387       C  0.79969230  0.41972923  0.20602062    -0.09520
C1388       C  0.81228781  0.43409985  0.23177459     0.29360
F1389       F  0.83792938  0.42335163  0.24493552    -0.20040
H1390       H  0.80507798  0.46611539  0.26773120     0.17720
H1391       H  0.76365019  0.42252131  0.17279979     0.17730
F1392       F  0.73192050  0.46651809  0.19530564    -0.20030
C1393       C  0.76273544  0.54202964  0.20811341    -0.21470
C1394       C  0.76987057  0.53348741  0.23783320    -0.09510
C1395       C  0.79523161  0.54638271  0.25197004     0.29350
C1396       C  0.81108691  0.56988789  0.23788742    -0.21470
C1397       C  0.80144350  0.58147936  0.20975181    -0.09520
C1398       C  0.77843617  0.56573458  0.19402119     0.29360
F1399       F  0.76899683  0.57516403  0.16633087    -0.20040
H1400       H  0.74347412  0.53196230  0.19672850     0.17720
H1401       H  0.82874031  0.58116795  0.25066997     0.17730
F1402       F  0.80299724  0.53810747  0.28053745    -0.20030
C1403       C  0.73431011  0.53927432  0.30544576    -0.21470
C1404       C  0.72673242  0.53271087  0.27532163    -0.09510
C1405       C  0.70152106  0.54693810  0.26222419     0.29350
C1406       C  0.68625146  0.56988266  0.27788680    -0.21470
C1407       C  0.69643434  0.57948878  0.30654393    -0.09520
C1408       C  0.71927013  0.56245583  0.32106350     0.29360
F1409       F  0.72920400  0.57027354  0.34910310    -0.20040
H1410       H  0.75347017  0.52814710  0.31600100     0.17720
H1411       H  0.66882535  0.58244882  0.26601798     0.17730
F1412       F  0.69343658  0.54058047  0.23324631    -0.20030
C1413       C  0.29391961  0.54681932  0.74543153    -0.21470
C1414       C  0.26600189  0.53740948  0.73366533    -0.09510
C1415       C  0.25563608  0.55000442  0.70640948     0.29350
C1416       C  0.27141430  0.57403813  0.69299441    -0.21470
C1417       C  0.29762228  0.58598279  0.70676960    -0.09520
C1418       C  0.30986414  0.57059424  0.73198296     0.29360
F1419       F  0.33565179  0.58042220  0.74554923    -0.20040
H1420       H  0.30231065  0.53723777  0.76639726     0.17720
H1421       H  0.26136871  0.58518129  0.67358426     0.17730
F1422       F  0.22900925  0.54076445  0.69417518    -0.20030
C1423       C  0.19913643  0.54846579  0.76262876    -0.21470
C1424       C  0.22571187  0.53523208  0.77386554    -0.09510
C1425       C  0.23621381  0.54374999  0.80263532     0.29350
C1426       C  0.22224820  0.56761568  0.81824953    -0.21470
C1427       C  0.19773866  0.58349281  0.80529369    -0.09520
C1428       C  0.18499052  0.57216480  0.77824354     0.29360
F1429       F  0.16127621  0.58634447  0.76475978    -0.20040
H1430       H  0.19071255  0.54212569  0.74046967     0.17720
H1431       H  0.23253413  0.57558547  0.83906828     0.17730
F1432       F  0.26181301  0.53119099  0.81413858    -0.20030
C1433       C  0.95587427  0.29986511  0.76771870    -0.21470
C1434       C  0.96576620  0.27112580  0.77692008    -0.09510
C1435       C  0.95418650  0.25870317  0.80371320     0.29350
C1436       C  0.93063942  0.27326589  0.81912068    -0.21470
C1437       C  0.91770217  0.30015410  0.80767282    -0.09520
C1438       C  0.93217333  0.31447794  0.78303545     0.29360
F1439       F  0.92143515  0.34091956  0.77163753    -0.20040
H1440       H  0.96491195  0.30996283  0.74729603     0.17720
H1441       H  0.92049243  0.26172199  0.83822888     0.17730
F1442       F  0.96361894  0.23106253  0.81332017    -0.20030
C1443       C  0.95806086  0.20291733  0.74334395    -0.21470
C1444       C  0.96579933  0.23247223  0.73481914    -0.09510
C1445       C  0.95229813  0.24517573  0.70901658     0.29350
C1446       C  0.92881682  0.22991120  0.69416719    -0.21470
C1447       C  0.91809758  0.20202123  0.70525350    -0.09520
C1448       C  0.93450053  0.18764936  0.72862430     0.29360
F1449       F  0.92571962  0.16024174  0.73938550    -0.20040
H1450       H  0.96855956  0.19265920  0.76300543     0.17720
H1451       H  0.91684657  0.24159442  0.67621193     0.17730
F1452       F  0.96000551  0.27343991  0.69979814    -0.20030
C1453       C  0.06650738  0.18745478  0.73133939    -0.21470
C1454       C  0.07969762  0.20122367  0.70578233    -0.09510
C1455       C  0.06539089  0.22721365  0.69359919     0.29350
C1456       C  0.04189295  0.24146251  0.70936351    -0.21470
C1457       C  0.03177072  0.22984487  0.73702163    -0.09520
C1458       C  0.04279380  0.20172138  0.74693328     0.29360
F1459       F  0.03245603  0.18939664  0.77308958    -0.20040
H1460       H  0.07656488  0.16736831  0.74119660     0.17720
H1461       H  0.03322981  0.26292462  0.70118522     0.17730
F1462       F  0.07627709  0.24098384  0.66837006    -0.20030
C1463       C  0.25468473  0.45768035  0.70568951    -0.21470
C1464       C  0.26800267  0.47166608  0.73082755    -0.09510
C1465       C  0.29805157  0.46437627  0.73843421     0.29350
C1466       C  0.31248967  0.43993249  0.72424057    -0.21470
C1467       C  0.29728621  0.42280040  0.70204212    -0.09520
C1468       C  0.26933613  0.43375906  0.69095747     0.29360
F1469       F  0.25407470  0.41883417  0.66882098    -0.20040
H1470       H  0.23168046  0.46338061  0.69927886     0.17720
H1471       H  0.33422384  0.43247998  0.73288231     0.17730
F1472       F  0.31204502  0.47840028  0.76193818    -0.20030
C1473       C  0.18624458  0.27343678  0.93954536    -0.21470
C1474       C  0.19833677  0.29967076  0.92598894    -0.09510
C1475       C  0.22360098  0.31355678  0.93982550     0.29350
C1476       C  0.23887349  0.29893901  0.96348592    -0.21470
C1477       C  0.22899474  0.27067329  0.97395168    -0.09520
C1478       C  0.20156132  0.25891180  0.96315040     0.29360
F1479       F  0.19124647  0.23181243  0.97330969    -0.20040
H1480       H  0.16663256  0.26233005  0.92983689     0.17720
H1481       H  0.25973810  0.30858836  0.97202470     0.17730
F1482       F  0.23572301  0.33933352  0.92834286    -0.20030
C1483       C  0.18690702  0.43852471  0.78867807    -0.21470
C1484       C  0.20500456  0.41834511  0.80551847    -0.09510
C1485       C  0.23632270  0.42487624  0.80827008     0.29350
C1486       C  0.24902889  0.44951598  0.79347334    -0.21470
C1487       C  0.23161197  0.46809405  0.77472002    -0.09520
C1488       C  0.20008599  0.46327497  0.77338632     0.29360
F1489       F  0.18245378  0.48092100  0.75548740    -0.20040
H1490       H  0.16298898  0.43403816  0.78570750     0.17720
H1491       H  0.27325889  0.45271829  0.79505725     0.17730
F1492       F  0.25580674  0.40564294  0.82233787    -0.20030
C1493       C  0.04499163  0.25716710  0.80451794    -0.21470
C1494       C  0.03204876  0.26941828  0.77828619    -0.09510
C1495       C  0.04066372  0.29853918  0.76897167     0.29350
C1496       C  0.06425426  0.31368769  0.78380580    -0.21470
C1497       C  0.07983270  0.29992282  0.80801321    -0.09520
C1498       C  0.06852261  0.27227351  0.81948785     0.29360
F1499       F  0.08243855  0.25791967  0.84284166    -0.20040
H1500       H  0.03839509  0.23481638  0.81214227     0.17720
H1501       H  0.07221249  0.33491287  0.77445670     0.17730
F1502       F  0.02831832  0.31102406  0.74374798    -0.20030
C1503       C  0.31147636  0.23008848  0.93605131    -0.21470
C1504       C  0.30015377  0.20262089  0.92442853    -0.09510
C1505       C  0.27655139  0.18806975  0.94034919     0.29350
C1506       C  0.26203482  0.20275848  0.96443633    -0.21470
C1507       C  0.27091763  0.23192472  0.97322953    -0.09520
C1508       C  0.29683704  0.24475792  0.96009243     0.29360
F1509       F  0.30645088  0.27261864  0.96879005    -0.20040
H1510       H  0.32960384  0.24190710  0.92452431     0.17720
H1511       H  0.24223856  0.19241883  0.97457062     0.17730
F1512       F  0.26541321  0.16107271  0.93073234    -0.20030
C1513       C  0.18703512  0.06824824  0.72529887    -0.21470
C1514       C  0.20234349  0.08443357  0.70244168    -0.09510
C1515       C  0.23083685  0.07354763  0.69275102     0.29350
C1516       C  0.24511921  0.04994254  0.70837041    -0.21470
C1517       C  0.23119557  0.03638841  0.73342697    -0.09520
C1518       C  0.20133049  0.04445416  0.74071253     0.29360
F1519       F  0.18702527  0.03122466  0.76444115    -0.20040
H1520       H  0.16508948  0.07584765  0.73323430     0.17720
H1521       H  0.26811061  0.04379432  0.70234856     0.17730
F1522       F  0.24668585  0.08803965  0.67078637    -0.20030
C1523       C  0.29885222  0.04365242  0.76755828    -0.21470
C1524       C  0.26934863  0.03567394  0.77599807    -0.09510
C1525       C  0.25668418  0.04856231  0.80217069     0.29350
C1526       C  0.27202245  0.07150980  0.81770721    -0.21470
C1527       C  0.29983305  0.08256339  0.80683204    -0.09520
C1528       C  0.31412806  0.06685625  0.78287721     0.29360
F1529       F  0.34141261  0.07606916  0.77215417    -0.20040
H1530       H  0.30902844  0.03365602  0.74757564     0.17720
H1531       H  0.26035209  0.08299331  0.83599844     0.17730
F1532       F  0.22831061  0.04094886  0.81110490    -0.20030
C1533       C  0.20277604  0.95921883  0.74711740    -0.21470
C1534       C  0.22960047  0.97006347  0.73426218    -0.09510
C1535       C  0.23870576  0.95912255  0.70582838     0.29350
C1536       C  0.22331968  0.93475417  0.69247470    -0.21470
C1537       C  0.19873605  0.92101045  0.70743649    -0.09520
C1538       C  0.18714656  0.93520241  0.73371696     0.29360
F1539       F  0.16272674  0.92379070  0.74847740    -0.20040
H1540       H  0.19530952  0.96768166  0.76892455     0.17720
H1541       H  0.23266013  0.92473244  0.67211412     0.17730
F1542       F  0.26407363  0.97006437  0.69242141    -0.20030
C1543       C  0.29569892  0.95417609  0.76021003    -0.21470
C1544       C  0.27115577  0.96944671  0.77331821    -0.09510
C1545       C  0.26309441  0.96281314  0.80334828     0.29350
C1546       C  0.27745721  0.93911450  0.81882470    -0.21470
C1547       C  0.29997313  0.92158275  0.80454497    -0.09520
C1548       C  0.31012744  0.93053614  0.77558379     0.29360
F1549       F  0.33124493  0.91409642  0.76040502    -0.20040
H1550       H  0.30224032  0.95903656  0.73707938     0.17720
H1551       H  0.26904432  0.93272642  0.84096195     0.17730
F1552       F  0.23940898  0.97720943  0.81662063    -0.20030
C1553       C  0.29762781  0.25729257  0.46024769    -0.21470
C1554       C  0.27295156  0.27211727  0.47356124    -0.09510
C1555       C  0.26703582  0.30239530  0.46597489     0.29350
C1556       C  0.28312690  0.31617682  0.44243565    -0.21470
C1557       C  0.30513900  0.29983951  0.42607152    -0.09520
C1558       C  0.31392352  0.27106992  0.43689752     0.29360
F1559       F  0.33523119  0.25440119  0.42225956    -0.20040
H1560       H  0.30262205  0.23400222  0.46617082     0.17720
H1561       H  0.27603837  0.33842048  0.43486758     0.17730
F1562       F  0.24371816  0.31753861  0.47908414    -0.20030
C1563       C  0.23649416  0.20522974  0.46523319    -0.21470
C1564       C  0.22923320  0.23538310  0.47212162    -0.09510
C1565       C  0.20465183  0.24908718  0.45729241     0.29350
C1566       C  0.18945544  0.23378270  0.43401134    -0.21470
C1567       C  0.19892925  0.20477999  0.42467740    -0.09520
C1568       C  0.22141199  0.18992328  0.44185559     0.29360
F1569       F  0.23079458  0.16165201  0.43420511    -0.20040
H1570       H  0.25545012  0.19432489  0.47634272     0.17720
H1571       H  0.17247375  0.24601580  0.42118238     0.17730
F1572       F  0.19696052  0.27818001  0.46357035    -0.20030
C1573       C  0.20221579  0.24734498  0.55021129    -0.21470
C1574       C  0.22857000  0.23427688  0.53831349    -0.09510
C1575       C  0.23666658  0.20485406  0.54709360     0.29350
C1576       C  0.22064565  0.19026583  0.57013998    -0.21470
C1577       C  0.19672169  0.20508350  0.58522720    -0.09520
C1578       C  0.18613287  0.23281852  0.57332126     0.29360
F1579       F  0.16275875  0.24785365  0.58648603    -0.20040
H1580       H  0.19553236  0.26993945  0.54334492     0.17720
H1581       H  0.22917808  0.16879842  0.57842717     0.17730
F1582       F  0.26183584  0.19147041  0.53559946    -0.20030
C1583       C  0.26106083  0.30116083  0.54942543    -0.21470
C1584       C  0.27090871  0.27258262  0.53976580    -0.09510
C1585       C  0.29764362  0.26050470  0.55208297     0.29350
C1586       C  0.31223852  0.27524297  0.57616169    -0.21470
C1587       C  0.30020938  0.30212540  0.58846144    -0.09520
C1588       C  0.27570937  0.31605707  0.57327643     0.29360
F1589       F  0.26387107  0.34256740  0.58346275    -0.20040
H1590       H  0.24057277  0.31089948  0.54005466     0.17720
H1591       H  0.33101625  0.26388881  0.58715078     0.17730
F1592       F  0.30815346  0.23321807  0.54260829    -0.20030
C1593       C  0.45596490  0.24265574  0.80545331    -0.21470
C1594       C  0.46565228  0.23391677  0.77654015    -0.09510
C1595       C  0.45377386  0.20738939  0.76359642     0.29350
C1596       C  0.43009019  0.19186567  0.77789648    -0.21470
C1597       C  0.41754875  0.20288218  0.80508167    -0.09520
C1598       C  0.43224359  0.22726747  0.81976487     0.29360
F1599       F  0.42170350  0.23827273  0.84648834    -0.20040
H1600       H  0.46517182  0.26286046  0.81591582     0.17720
H1601       H  0.41948555  0.17323128  0.76595899     0.17730
F1602       F  0.46326433  0.19799509  0.73590874    -0.20030
C1603       C  0.45738386  0.26691125  0.70927672    -0.21470
C1604       C  0.46628068  0.27630972  0.73822787    -0.09510
C1605       C  0.45400464  0.30305846  0.75030564     0.29350
C1606       C  0.43045322  0.31805376  0.73520270    -0.21470
C1607       C  0.41855522  0.30627694  0.70804539    -0.09520
C1608       C  0.43389140  0.28183549  0.69410518     0.29360
F1609       F  0.42403942  0.27020302  0.66738105    -0.20040
H1610       H  0.46700716  0.24658166  0.69943879     0.17720
H1611       H  0.41936081  0.33678034  0.74655473     0.17730
F1612       F  0.46279391  0.31300056  0.77804174    -0.20030
C1613       C  0.54166008  0.26626096  0.71118345    -0.21470
C1614       C  0.53257109  0.27666431  0.73976553    -0.09510
C1615       C  0.54551440  0.30327331  0.75137366     0.29350
C1616       C  0.56968733  0.31715573  0.73622593    -0.21470
C1617       C  0.58157497  0.30442328  0.70947194    -0.09520
C1618       C  0.56580788  0.28005055  0.69598691     0.29360
F1619       F  0.57560011  0.26754472  0.66963931    -0.20040
H1620       H  0.53165345  0.24592872  0.70175144     0.17720
H1621       H  0.58106186  0.33592093  0.74720414     0.17730
F1622       F  0.53654068  0.31429879  0.77862979    -0.20030
C1623       C  0.54323652  0.24614644  0.80715791    -0.21470
C1624       C  0.53178374  0.23566111  0.77945369    -0.09510
C1625       C  0.54150371  0.20754126  0.76832215     0.29350
C1626       C  0.56480445  0.19186162  0.78297099    -0.21470
C1627       C  0.57931987  0.20432946  0.80856227    -0.09520
C1628       C  0.56674035  0.23061228  0.82178707     0.29360
F1629       F  0.57936183  0.24336655  0.84675803    -0.20040
H1630       H  0.53562221  0.26763266  0.81624775     0.17720
H1631       H  0.57359862  0.17155222  0.77233607     0.17730
F1632       F  0.53060394  0.19673504  0.74167521    -0.20030
C1633       C  0.43545710  0.77965212  0.19824206    -0.21470
C1634       C  0.41767657  0.80135572  0.21337009    -0.09510
C1635       C  0.42616093  0.81010053  0.24295205     0.29350
C1636       C  0.44977395  0.79514241  0.25788100    -0.21470
C1637       C  0.46540017  0.77138620  0.24374705    -0.09520
C1638       C  0.45898076  0.76463322  0.21330532     0.29360
F1639       F  0.47318989  0.74141665  0.19909795    -0.20040
H1640       H  0.42929384  0.77221911  0.17566987     0.17720
H1641       H  0.45425283  0.80047277  0.28142676     0.17730
F1642       F  0.40921584  0.83014482  0.25901305    -0.20030
C1643       C  0.45600054  0.73752449  0.31073280    -0.21470
C1644       C  0.46567994  0.72884574  0.28173084    -0.09510
C1645       C  0.45348916  0.70267244  0.26854605     0.29350
C1646       C  0.42958684  0.68748789  0.28260376    -0.21470
C1647       C  0.41672362  0.69868813  0.30963495    -0.09520
C1648       C  0.43178339  0.72250597  0.32477177     0.29360
F1649       F  0.42116397  0.73348504  0.35145313    -0.20040
H1650       H  0.46546578  0.75752882  0.32133980     0.17720
H1651       H  0.41905425  0.66892667  0.27047842     0.17730
F1652       F  0.46262054  0.69355964  0.24063505    -0.20030
C1653       C  0.54429298  0.74182890  0.30972967    -0.21470
C1654       C  0.53197863  0.73005971  0.28292705    -0.09510
C1655       C  0.54146779  0.70146821  0.27279850     0.29350
C1656       C  0.56551185  0.68668748  0.28723145    -0.21470
C1657       C  0.58071352  0.70035231  0.31178449    -0.09520
C1658       C  0.56829651  0.72704879  0.32430274     0.29360
F1659       F  0.58155758  0.74093109  0.34832109    -0.20040
H1660       H  0.53696530  0.76376010  0.31798256     0.17720
H1661       H  0.57416341  0.66600069  0.27722373     0.17730
F1662       F  0.52949191  0.68918383  0.24729407    -0.20030
C1663       C  0.56574049  0.77491421  0.19949114    -0.21470
C1664       C  0.58001858  0.80023408  0.21262729    -0.09510
C1665       C  0.56729332  0.81273208  0.23920162     0.29350
C1666       C  0.54348357  0.79785282  0.25403887    -0.21470
C1667       C  0.53200837  0.77049050  0.24268350    -0.09520
C1668       C  0.54244075  0.75982764  0.21460721     0.29360
F1669       F  0.53239836  0.73311266  0.20325830    -0.20040
H1670       H  0.57479676  0.76471973  0.17907380     0.17720
H1671       H  0.53572525  0.80633155  0.27573012     0.18220
F1672       F  0.58003821  0.83714391  0.25286440    -0.20030
C1673       C  0.45722715  0.26099899  0.29925871    -0.21470
C1674       C  0.46726563  0.27312988  0.27178667    -0.09510
C1675       C  0.45630237  0.30147010  0.26247334     0.29350
C1676       C  0.43266477  0.31547243  0.27841290    -0.21470
C1677       C  0.41962076  0.30129464  0.30381582    -0.09520
C1678       C  0.43391584  0.27505637  0.31544896     0.29360
F1679       F  0.42324565  0.26097278  0.34059785    -0.20040
H1680       H  0.46590066  0.23937722  0.30700727     0.17720
H1681       H  0.42261112  0.33576996  0.26899633     0.17730
F1682       F  0.46663797  0.31432288  0.23658343    -0.20030
C1683       C  0.45814116  0.20472187  0.24248193    -0.21470
C1684       C  0.46716038  0.23293443  0.23115650    -0.09510
C1685       C  0.45448639  0.24342385  0.20396996     0.29350
C1686       C  0.43057392  0.22762566  0.19035369    -0.21470
C1687       C  0.41874529  0.20130115  0.20389080    -0.09520
C1688       C  0.43435193  0.18879971  0.22885963     0.29360
F1689       F  0.42465547  0.16280248  0.24205665    -0.20040
H1690       H  0.46788353  0.19618958  0.26332678     0.17720
H1691       H  0.41930434  0.23784168  0.17110146     0.17730
F1692       F  0.46337220  0.27030481  0.19209768    -0.20030
C1693       C  0.54614379  0.24300808  0.20493491    -0.21470
C1694       C  0.53355611  0.23231085  0.23200257    -0.09510
C1695       C  0.54286325  0.20410425  0.24327500     0.29350
C1696       C  0.56679423  0.18853566  0.22948269    -0.21470
C1697       C  0.58215098  0.20107141  0.20449380    -0.09520
C1698       C  0.57013680  0.22751665  0.19108107     0.29360
F1699       F  0.58376338  0.24051420  0.16681185    -0.20040
H1700       H  0.53903182  0.26466329  0.19586078     0.17720
H1701       H  0.57522176  0.16815840  0.24024943     0.17730
F1702       F  0.53080427  0.19304317  0.26927226    -0.20030
C1703       C  0.56857504  0.31438895  0.27846044    -0.21470
C1704       C  0.58044989  0.30094480  0.30485713    -0.09510
C1705       C  0.56525988  0.27553276  0.31699638     0.29350
C1706       C  0.54200369  0.26150561  0.30065164    -0.21470
C1707       C  0.53318215  0.27276005  0.27234894    -0.09520
C1708       C  0.54529108  0.30027884  0.26219242     0.29360
F1709       F  0.53654166  0.31200827  0.23517527    -0.20040
H1710       H  0.57942369  0.33400002  0.26852960     0.17720
H1711       H  0.53245338  0.24052534  0.30902179     0.17730
F1712       F  0.57492293  0.26225576  0.34299026    -0.20030
loop_ 
_geom_bond_atom_site_label_1 
_geom_bond_atom_site_label_2 
_geom_bond_distance 
_geom_bond_site_symmetry_2 
_ccdc_geom_bond_type 
C1            C2   1.352       .  D
C1         C1694   1.486       .  S
C1         C1707   1.485       .  S
C2         C1674   1.486       .  S
C2         C1684   1.486       .  S
C3            C4   1.354       .  D
C3         C1654   1.486       .  S
C3         C1667   1.488       .  S
C4         C1637   1.488       .  S
C4         C1644   1.487       .  S
C5            C6   1.353       .  D
C5         C1614   1.488       .  S
C5         C1624   1.486       .  S
C6         C1594   1.488       .  S
C6         C1604   1.486       .  S
C7            C8   1.352       .  D
C7         C1574   1.483       .  S
C7         C1584   1.489       .  S
C8         C1554   1.483       .  S
C8         C1564   1.490       .  S
C9           C10   1.352   1_565  D
C9         C1534   1.484       .  S
C9         C1544   1.488       .  S
C10        C1517   1.488       .  S
C10        C1524   1.485       .  S
Fe11         O27   2.075       .  S
Fe11         O17   2.066       .  S
Fe11         O24   2.053       .  S
Fe11         O16   2.059       .  S
Fe11         O22   1.962       .  S
Fe12         O15   2.068       .  S
Fe12         O19   2.066       .  S
Fe12         O23   2.061       .  S
Fe12         O28   2.066       .  S
Fe12         O22   1.959       .  S
Fe13         O31   2.069       .  S
Fe13         O18   2.047       .  S
Fe13         O25   2.065       .  S
Fe13         O14   2.060       .  S
Fe13         O22   1.965       .  S
O14          C21   1.266       .  A
O15          C29   1.273       .  A
O16          C21   1.269       .  A
O17          C20   1.271       .  A
O18          C30   1.265       .  A
O19          C32   1.272       .  A
C20          O25   1.273       .  A
C20        C1527   1.485       .  S
C21          C92   1.461       .  S
O23          C26   1.269       .  A
O24          C26   1.264       .  A
C26          C65   1.458       .  S
O27          C32   1.276       .  A
O28          C30   1.269       .  A
C29          O31   1.271       .  A
C29        C1504   1.489       .  S
C30          C52   1.459       .  S
C32        C1597   1.490       .  S
Fe33         O49   2.087       .  S
Fe33         O39   2.081       .  S
Fe33         O46   2.054       .  S
Fe33         O38   2.064       .  S
Fe33         O44   1.965       .  S
Fe34         O37   2.072       .  S
Fe34         O41   2.058       .  S
Fe34         O45   2.061       .  S
Fe34         O50   2.053       .  S
Fe34         O44   1.962       .  S
Fe35         O53   2.064       .  S
Fe35         O40   2.060       .  S
Fe35         O47   2.049       .  S
Fe35         O36   2.064       .  S
Fe35         O44   1.952       .  S
O36          C43   1.270       .  A
O37          C51   1.272       .  A
O38          C43   1.268       .  A
O39          C42   1.277       .  A
O40          C52   1.267       .  A
O41          C54   1.272       .  A
C42          O47   1.268       .  A
C42        C1484   1.495       .  S
C43          C74   1.465       .  S
O45          C48   1.266       .  A
O46          C48   1.267       .  A
C48          C96   1.461       .  S
O49          C54   1.277       .  A
O50          C52   1.267       .  A
C51          O53   1.271       .  A
C51        C1474   1.489       .  S
C54        C1497   1.490       .  S
Fe55         O71   2.074       .  S
Fe55         O61   2.060       .  S
Fe55         O68   2.055       .  S
Fe55         O60   2.053       .  S
Fe55         O66   1.961       .  S
Fe56         O59   2.059       .  S
Fe56         O63   2.066       .  S
Fe56         O67   2.051       .  S
Fe56         O72   2.074       .  S
Fe56         O66   1.958       .  S
Fe57         O75   2.081       .  S
Fe57         O62   2.048       .  S
Fe57         O69   2.072       .  S
Fe57         O58   2.060       .  S
Fe57         O66   1.969       .  S
O58          C65   1.266       .  A
O59          C73   1.270       .  A
O60          C65   1.268       .  A
O61          C64   1.270       .  A
O62          C74   1.264       .  A
O63          C76   1.272       .  A
C64          O69   1.274       .  A
C64        C1607   1.488       .  S
O67          C70   1.268       .  A
O68          C70   1.264       .  A
C70          C87   1.455       .  S
O71          C76   1.275       .  A
O72          C74   1.270       .  A
C73          O75   1.275       .  A
C73        C1467   1.487       .  S
C76        C1587   1.490       .  S
Fe77         O93   2.068       .  S
Fe77         O83   2.060       .  S
Fe77         O90   2.050       .  S
Fe77         O82   2.052       .  S
Fe77         O88   1.971       .  S
Fe78         O81   2.077       .  S
Fe78         O85   2.072       .  S
Fe78         O89   2.065       .  S
Fe78         O94   2.067       .  S
Fe78         O88   1.971       .  S
Fe79         O97   2.055       .  S
Fe79         O84   2.044       .  S
Fe79         O91   2.064       .  S
Fe79         O80   2.049       .  S
Fe79         O88   1.973       .  S
O80          C87   1.264       .  A
O81          C95   1.275       .  A
O82          C87   1.267       .  A
O83          C86   1.270       .  A
O84          C96   1.263       .  A
O85          C98   1.274       .  A
C86          O91   1.270       .  A
C86        C1577   1.487       .  S
O89          C92   1.269       .  A
O90          C92   1.263       .  A
O93          C98   1.274       .  A
O94          C96   1.268       .  A
C95          O97   1.269       .  A
C95        C1454   1.491       .  S
C98        C1514   1.490       .  S
C99         C100   1.352   1_455  D
C99        C1457   1.486       .  S
C99        C1494   1.487       .  S
C100       C1434   1.487       .  S
C100       C1444   1.486       .  S
C101        C102   1.354       .  D
C101       C1464   1.489       .  S
C101       C1487   1.494       .  S
C102       C1414   1.487       .  S
C102       C1424   1.486       .  S
C103        C104   1.352       .  D
C103       C1377   1.488       .  S
C103       C1384   1.485       .  S
C104       C1394   1.488       .  S
C104       C1404   1.485       .  S
C105        C106   1.353   1_556  D
C105       C1354   1.488       .  S
C105       C1364   1.485       .  S
C106       C1334   1.485       .  S
C106       C1347   1.488       .  S
Fe107       O123   2.066       .  S
Fe107       O113   2.074       .  S
Fe107       O120   2.072       .  S
Fe107       O112   2.059       .  S
Fe107       O118   1.963       .  S
Fe108       O111   2.076       .  S
Fe108       O115   2.070       .  S
Fe108       O119   2.050       .  S
Fe108       O124   2.056       .  S
Fe108       O118   1.968       .  S
Fe109       O127   2.054       .  S
Fe109       O114   2.051       .  S
Fe109       O121   2.064       .  S
Fe109       O110   2.052       .  S
Fe109       O118   1.959       .  S
O110        C117   1.263       .  A
O111        C125   1.275       .  A
O112        C117   1.268       .  A
O113        C116   1.274       .  A
O114        C126   1.268       .  A
O115        C128   1.273       .  A
C116        O121   1.273       .  A
C116       C1324   1.487       .  S
C117        C148   1.457       .  S
O119        C122   1.266       .  A
O120        C122   1.270       .  A
C122        C192   1.463       .  S
O123        C128   1.272       .  A
O124        C126   1.265       .  A
C125        O127   1.268       .  A
C125       C1387   1.488       .  S
C126        C166   1.455       .  S
C128       C1344   1.490       .  S
Fe129       O145   2.062       .  S
Fe129       O135   2.071       .  S
Fe129       O142   2.075       .  S
Fe129       O134   2.054       .  S
Fe129       O140   1.959       .  S
Fe130       O133   2.066       .  S
Fe130       O137   2.075       .  S
Fe130       O141   2.042       .  S
Fe130       O146   2.061       .  S
Fe130       O140   1.965       .  S
Fe131       O149   2.066       .  S
Fe131       O136   2.051       .  S
Fe131       O143   2.070       .  S
Fe131       O132   2.059       .  S
Fe131       O140   1.960       .  S
O132        C139   1.265       .  A
O133        C147   1.272       .  A
O134        C139   1.269       .  A
O135        C138   1.273       .  A
O136        C148   1.268       .  A
O137        C150   1.273       .  A
C138        O143   1.274       .  A
C138       C1304   1.489       .  S
C139        C161   1.458       .  S
O141        C144   1.264       .  A
O142        C144   1.270       .  A
C144        C183   1.461       .  S
O145        C150   1.271       .  A
O146        C148   1.266       .  A
C147        O149   1.272       .  A
C147       C1294   1.487       .  S
C150       C1317   1.487       .  S
Fe151       O167   2.074       .  S
Fe151       O157   2.055       .  S
Fe151       O164   2.045       .  S
Fe151       O156   2.058       .  S
Fe151       O162   1.967       .  S
Fe152       O155   2.067       .  S
Fe152       O159   2.065       .  S
Fe152       O163   2.060       .  S
Fe152       O168   2.066       .  S
Fe152       O162   1.966       .  S
Fe153       O171   2.067       .  S
Fe153       O158   2.052       .  S
Fe153       O165   2.075       .  S
Fe153       O154   2.051       .  S
Fe153       O162   1.970       .  S
O154        C161   1.264       .  A
O155        C169   1.273       .  A
O156        C161   1.268       .  A
O157        C160   1.269       .  A
O158        C170   1.265       .  A
O159        C172   1.272       .  A
C160        O165   1.274       .  A
C160       C1284   1.489       .  S
O163        C166   1.269       .  A
O164        C166   1.262       .  A
O167        C172   1.275       .  A
O168        C170   1.267       .  A
C169        O171   1.272       .  A
C169       C1704   1.490       .  S
C170        C188   1.463       .  S
C172       C1374   1.492       .  S
Fe173       O189   2.080       .  S
Fe173       O179   2.065       .  S
Fe173       O186   2.051       .  S
Fe173       O178   2.073       .  S
Fe173       O184   1.954       .  S
Fe174       O177   2.079       .  S
Fe174       O181   2.061       .  S
Fe174       O185   2.074       .  S
Fe174       O190   2.051       .  S
Fe174       O184   1.951       .  S
Fe175       O193   2.061       .  S
Fe175       O180   2.074       .  S
Fe175       O187   2.077       .  S
Fe175       O176   2.048       .  S
Fe175       O184   1.951       .  S
O176        C183   1.268       .  A
O177        C191   1.274       .  A
O178        C183   1.269       .  A
O179        C182   1.273       .  A
O180        C192   1.269       .  A
O181        C194   1.272       .  A
C182        O187   1.274       .  A
C182       C1277   1.490       .  S
O185        C188   1.270       .  A
O186        C188   1.267       .  A
O189        C194   1.274       .  A
O190        C192   1.267       .  A
C191        O193   1.272       .  A
C191       C1337   1.488       .  S
C194       C1697   1.489       .  S
C195        C196   1.353   1_545  D
C195       C1274   1.487       .  S
C195       C1314   1.487       .  S
C196       C1254   1.487       .  S
C196       C1264   1.486       .  S
C197        C198   1.353       .  D
C197       C1287   1.486       .  S
C197       C1307   1.488       .  S
C198       C1234   1.487       .  S
C198       C1244   1.486       .  S
C199        C200   1.352   1_556  D
C199       C1217   1.488       .  S
C199       C1224   1.486       .  S
C200       C1194   1.487       .  S
C200       C1207   1.485       .  S
Fe201       O217   2.067       .  S
Fe201       O207   2.067       .  S
Fe201       O214   2.060       .  S
Fe201       O206   2.058       .  S
Fe201       O212   1.978       .  S
Fe202       O205   2.066       .  S
Fe202       O209   2.063       .  S
Fe202       O213   2.045       .  S
Fe202       O218   2.047       .  S
Fe202       O212   1.979       .  S
Fe203       O221   2.059       .  S
Fe203       O208   2.054       .  S
Fe203       O215   2.069       .  S
Fe203       O204   2.046       .  S
Fe203       O212   1.977       .  S
O204        C211   1.262       .  A
O205        C219   1.272       .  A
O206        C211   1.266       .  A
O207        C210   1.273       .  A
O208        C220   1.266       .  A
O209        C222   1.272       .  A
C210        O215   1.274       .  A
C210       C1397   1.491       .  S
C211        C282   1.459       .  S
O213        C216   1.262       .  A
O214        C216   1.266       .  A
C216        C255   1.459       .  S
O217        C222   1.272       .  A
O218        C220   1.263       .  A
C219        O221   1.270       .  A
C219       C1184   1.489       .  S
C220        C242   1.458       .  S
C222       C1204   1.491       .  S
Fe223       O239   2.069       .  S
Fe223       O229   2.070       .  S
Fe223       O236   2.059       .  S
Fe223       O228   2.047       .  S
Fe223       O234   1.962       .  S
Fe224       O227   2.067       .  S
Fe224       O231   2.063       .  S
Fe224       O235   2.057       .  S
Fe224       O240   2.057       .  S
Fe224       O234   1.960       .  S
Fe225       O243   2.076       .  S
Fe225       O230   2.054       .  S
Fe225       O237   2.067       .  S
Fe225       O226   2.075       .  S
Fe225       O234   1.962       .  S
O226        C233   1.270       .  A
O227        C241   1.274       .  A
O228        C233   1.266       .  A
O229        C232   1.272       .  A
O230        C242   1.268       .  A
O231        C244   1.270       .  A
C232        O237   1.272       .  A
C232       C1257   1.490       .  S
C233        C264   1.463       .  S
O235        C238   1.268       .  A
O236        C238   1.265       .  A
C238        C286   1.458       .  S
O239        C244   1.274       .  A
O240        C242   1.265       .  A
C241        O243   1.274       .  A
C241       C1164   1.490       .  S
C244       C1174   1.485       .  S
Fe245       O261   2.072       .  S
Fe245       O251   2.063       .  S
Fe245       O258   2.047       .  S
Fe245       O250   2.067       .  S
Fe245       O256   1.952       .  S
Fe246       O249   2.083       .  S
Fe246       O253   2.064       .  S
Fe246       O257   2.075       .  S
Fe246       O262   2.048       .  S
Fe246       O256   1.956       .  S
Fe247       O265   2.059       .  S
Fe247       O252   2.077       .  S
Fe247       O259   2.078       .  S
Fe247       O248   2.050       .  S
Fe247       O256   1.952       .  S
O248        C255   1.268       .  A
O249        C263   1.275       .  A
O250        C255   1.268       .  A
O251        C254   1.273       .  A
O252        C264   1.270       .  A
O253        C266   1.272       .  A
C254        O259   1.274       .  A
C254       C1197   1.486       .  S
O257        C260   1.270       .  A
O258        C260   1.267       .  A
C260        C277   1.461       .  S
O261        C266   1.273       .  A
O262        C264   1.267       .  A
C263        O265   1.271       .  A
C263       C1267   1.487       .  S
C266       C1664   1.489       .  S
Fe267       O283   2.063       .  S
Fe267       O273   2.070       .  S
Fe267       O280   2.064       .  S
Fe267       O272   2.046       .  S
Fe267       O278   1.961       .  S
Fe268       O271   2.068       .  S
Fe268       O275   2.070       .  S
Fe268       O279   2.049       .  S
Fe268       O284   2.059       .  S
Fe268       O278   1.961       .  S
Fe269       O287   2.071       .  S
Fe269       O274   2.058       .  S
Fe269       O281   2.068       .  S
Fe269       O270   2.073       .  S
Fe269       O278   1.959       .  S
O270        C277   1.269       .  A
O271        C285   1.274       .  A
O272        C277   1.266       .  A
O273        C276   1.272       .  A
O274        C286   1.269       .  A
O275        C288   1.272       .  A
C276        O281   1.273       .  A
C276       C1657   1.489       .  S
O279        C282   1.267       .  A
O280        C282   1.267       .  A
O283        C288   1.272       .  A
O284        C286   1.266       .  A
C285        O287   1.273       .  A
C285       C1154   1.487       .  S
C288       C1407   1.484       .  S
C289        C290   1.353       .  D
C289       C1157   1.487       .  S
C289       C1177   1.486       .  S
C290       C1134   1.485       .  S
C290       C1144   1.488       .  S
C291        C292   1.352   1_565  D
C291       C1114   1.487       .  S
C291       C1124   1.486       .  S
C292       C1094   1.486       .  S
C292       C1107   1.486       .  S
Fe293       O309   2.068       .  S
Fe293       O299   2.069       .  S
Fe293       O306   2.055       .  S
Fe293       O298   2.048       .  S
Fe293       O304   1.960       .  S
Fe294       O297   2.070       .  S
Fe294       O301   2.071       .  S
Fe294       O305   2.062       .  S
Fe294       O310   2.068       .  S
Fe294       O304   1.956       .  S
Fe295       O313   2.076       .  S
Fe295       O300   2.051       .  S
Fe295       O307   2.066       .  S
Fe295       O296   2.071       .  S
Fe295       O304   1.959       .  S
O296        C303   1.270       .  A
O297        C311   1.275       .  A
O298        C303   1.266       .  A
O299        C302   1.272       .  A
O300        C312   1.266       .  A
O301        C314   1.273       .  A
C302        O307   1.272       .  A
C302       C1627   1.489       .  S
C303        C374   1.461       .  S
O305        C308   1.270       .  A
O306        C308   1.264       .  A
C308        C347   1.457       .  S
O309        C314   1.274       .  A
O310        C312   1.268       .  A
C311        O313   1.274       .  A
C311       C1357   1.492       .  S
C312        C325   1.462       .  S
C314       C1104   1.489       .  S
Fe315       O331   2.070       .  S
Fe315       O321   2.069       .  S
Fe315       O328   2.056       .  S
Fe315       O320   2.066       .  S
Fe315       O326   1.962       .  S
Fe316       O319   2.062       .  S
Fe316       O323   2.071       .  S
Fe316       O327   2.062       .  S
Fe316       O332   2.064       .  S
Fe316       O326   1.959       .  S
Fe317       O335   2.072       .  S
Fe317       O322   2.050       .  S
Fe317       O329   2.063       .  S
Fe317       O318   2.051       .  S
Fe317       O326   1.965       .  S
O318        C325   1.266       .  A
O319        C333   1.272       .  A
O320        C325   1.268       .  A
O321        C324   1.273       .  A
O322        C334   1.263       .  A
O323        C336   1.274       .  A
C324        O329   1.270       .  A
C324       C1367   1.489       .  S
O327        C330   1.267       .  A
O328        C330   1.267       .  A
C330        C356   1.462       .  S
O331        C336   1.273       .  A
O332        C334   1.270       .  A
C333        O335   1.274       .  A
C333       C1084   1.490       .  S
C334        C378   1.457       .  S
C336       C1437   1.492       .  S
Fe337       O353   2.068       .  S
Fe337       O343   2.071       .  S
Fe337       O350   2.071       .  S
Fe337       O342   2.060       .  S
Fe337       O348   1.955       .  S
Fe338       O341   2.062       .  S
Fe338       O345   2.076       .  S
Fe338       O349   2.051       .  S
Fe338       O354   2.073       .  S
Fe338       O348   1.956       .  S
Fe339       O357   2.071       .  S
Fe339       O344   2.047       .  S
Fe339       O351   2.067       .  S
Fe339       O340   2.057       .  S
Fe339       O348   1.960       .  S
O340        C347   1.265       .  A
O341        C355   1.271       .  A
O342        C347   1.270       .  A
O343        C346   1.273       .  A
O344        C356   1.265       .  A
O345        C358   1.274       .  A
C346        O351   1.274       .  A
C346       C1097   1.488       .  S
O349        C352   1.266       .  A
O350        C352   1.268       .  A
C352        C369   1.462       .  S
O353        C358   1.274       .  A
O354        C356   1.271       .  A
C355        O357   1.272       .  A
C355       C1447   1.485       .  S
C358       C1247   1.491       .  S
Fe359       O375   2.075       .  S
Fe359       O365   2.060       .  S
Fe359       O372   2.050       .  S
Fe359       O364   2.072       .  S
Fe359       O370   1.957       .  S
Fe360       O363   2.067       .  S
Fe360       O367   2.069       .  S
Fe360       O371   2.069       .  S
Fe360       O376   2.060       .  S
Fe360       O370   1.954       .  S
Fe361       O379   2.072       .  S
Fe361       O366   2.057       .  S
Fe361       O373   2.076       .  S
Fe361       O362   2.048       .  S
Fe361       O370   1.963       .  S
O362        C369   1.266       .  A
O363        C377   1.273       .  A
O364        C369   1.270       .  A
O365        C368   1.271       .  A
O366        C378   1.265       .  A
O367        C380   1.274       .  A
C368        O373   1.273       .  A
C368       C1237   1.488       .  S
O371        C374   1.268       .  A
O372        C374   1.266       .  A
O375        C380   1.273       .  A
O376        C378   1.270       .  A
C377        O379   1.275       .  A
C377       C1074   1.491       .  S
C380       C1617   1.490       .  S
C381        C382   1.352       .  D
C381       C1077   1.487       .  S
C381       C1087   1.485       .  S
C382       C1054   1.486       .  S
C382       C1064   1.487       .  S
Fe383       O399   2.065       .  S
Fe383       O389   2.061       .  S
Fe383       O396   2.059       .  S
Fe383       O388   2.057       .  S
Fe383       O394   1.974       .  S
Fe384       O387   2.064       .  S
Fe384       O391   2.066       .  S
Fe384       O395   2.044       .  S
Fe384       O400   2.049       .  S
Fe384       O394   1.978       .  S
Fe385       O403   2.063       .  S
Fe385       O390   2.056       .  S
Fe385       O397   2.076       .  S
Fe385       O386   2.047       .  S
Fe385       O394   1.979       .  S
O386        C393   1.262       .  A
O387        C401   1.271       .  A
O388        C393   1.266       .  A
O389        C392   1.271       .  A
O390        C402   1.266       .  A
O391        C404   1.272       .  A
C392        O397   1.276       .  A
C392       C1214   1.492       .  S
C393        C446   1.458       .  S
O395        C398   1.262       .  A
O396        C398   1.267       .  A
C398        C464   1.458       .  S
O399        C404   1.272       .  A
O400        C402   1.264       .  A
C401        O403   1.271       .  A
C401       C1044   1.489       .  S
C402        C415   1.459       .  S
C404       C1067   1.492       .  S
Fe405       O421   2.062       .  S
Fe405       O411   2.077       .  S
Fe405       O418   2.079       .  S
Fe405       O410   2.051       .  S
Fe405       O416   1.958       .  S
Fe406       O409   2.065       .  S
Fe406       O413   2.074       .  S
Fe406       O417   2.045       .  S
Fe406       O422   2.062       .  S
Fe406       O416   1.963       .  S
Fe407       O425   2.069       .  S
Fe407       O412   2.054       .  S
Fe407       O419   2.069       .  S
Fe407       O408   2.063       .  S
Fe407       O416   1.960       .  S
O408        C415   1.266       .  A
O409        C423   1.273       .  A
O410        C415   1.268       .  A
O411        C414   1.274       .  A
O412        C424   1.268       .  A
O413        C426   1.272       .  A
C414        O419   1.274       .  A
C414       C1034   1.490       .  S
O417        C420   1.265       .  A
O418        C420   1.271       .  A
C420        C459   1.464       .  S
O421        C426   1.271       .  A
O422        C424   1.267       .  A
C423        O425   1.272       .  A
C423       C1127   1.486       .  S
C424        C437   1.458       .  S
C426       C1147   1.486       .  S
Fe427       O443   2.067       .  S
Fe427       O433   2.073       .  S
Fe427       O440   2.073       .  S
Fe427       O432   2.058       .  S
Fe427       O438   1.960       .  S
Fe428       O431   2.068       .  S
Fe428       O435   2.072       .  S
Fe428       O439   2.049       .  S
Fe428       O444   2.061       .  S
Fe428       O438   1.964       .  S
Fe429       O447   2.066       .  S
Fe429       O434   2.050       .  S
Fe429       O441   2.068       .  S
Fe429       O430   2.057       .  S
Fe429       O438   1.960       .  S
O430        C437   1.265       .  A
O431        C445   1.273       .  A
O432        C437   1.269       .  A
O433        C436   1.273       .  A
O434        C446   1.267       .  A
O435        C448   1.273       .  A
C436        O441   1.274       .  A
C436       C1117   1.488       .  S
O439        C442   1.265       .  A
O440        C442   1.270       .  A
C442        C468   1.463       .  S
O443        C448   1.273       .  A
O444        C446   1.267       .  A
C445        O447   1.271       .  A
C445       C1227   1.488       .  S
C448       C1024   1.490       .  S
Fe449       O465   2.069       .  S
Fe449       O455   2.067       .  S
Fe449       O462   2.054       .  S
Fe449       O454   2.067       .  S
Fe449       O460   1.960       .  S
Fe450       O453   2.068       .  S
Fe450       O457   2.069       .  S
Fe450       O461   2.058       .  S
Fe450       O466   2.055       .  S
Fe450       O460   1.959       .  S
Fe451       O469   2.069       .  S
Fe451       O456   2.066       .  S
Fe451       O463   2.072       .  S
Fe451       O452   2.056       .  S
Fe451       O460   1.958       .  S
O452        C459   1.268       .  A
O453        C467   1.271       .  A
O454        C459   1.267       .  A
O455        C458   1.273       .  A
O456        C468   1.268       .  A
O457        C470   1.274       .  A
C458        O463   1.274       .  A
C458       C1137   1.491       .  S
O461        C464   1.266       .  A
O462        C464   1.268       .  A
O465        C470   1.273       .  A
O466        C468   1.268       .  A
C467        O469   1.274       .  A
C467       C1014   1.490       .  S
C470       C1057   1.490       .  S
C471        C472   1.354       .  D
C471        C994   1.486       .  S
C471       C1004   1.488       .  S
C472       C1017   1.488       .  S
C472       C1027   1.487       .  S
Fe473       O489   2.066       .  S
Fe473       O479   2.077       .  S
Fe473       O486   2.076       .  S
Fe473       O478   2.058       .  S
Fe473       O484   1.953       .  S
Fe474       O477   2.062       .  S
Fe474       O481   2.079       .  S
Fe474       O485   2.049       .  S
Fe474       O490   2.075       .  S
Fe474       O484   1.955       .  S
Fe475       O493   2.077       .  S
Fe475       O480   2.043       .  S
Fe475       O487   2.063       .  S
Fe475       O476   2.061       .  S
Fe475       O484   1.957       .  S
O476        C483   1.266       .  A
O477        C491   1.271       .  A
O478        C483   1.269       .  A
O479        C482   1.274       .  A
O480        C492   1.265       .  A
O481        C494   1.274       .  A
C482        O487   1.273       .  A
C482        C977   1.485       .  S
C483        C527   1.457       .  S
O485        C488   1.267       .  A
O486        C488   1.270       .  A
C488        C514   1.463       .  S
O489        C494   1.274       .  A
O490        C492   1.271       .  A
C491        O493   1.272       .  A
C491       C1427   1.489       .  S
C492        C549   1.460       .  S
C494        C984   1.490       .  S
Fe495       O511   2.070       .  S
Fe495       O501   2.070       .  S
Fe495       O508   2.060       .  S
Fe495       O500   2.072       .  S
Fe495       O506   1.955       .  S
Fe496       O499   2.075       .  S
Fe496       O503   2.070       .  S
Fe496       O507   2.056       .  S
Fe496       O512   2.050       .  S
Fe496       O506   1.958       .  S
Fe497       O515   2.059       .  S
Fe497       O502   2.071       .  S
Fe497       O509   2.068       .  S
Fe497       O498   2.049       .  S
Fe497       O506   1.955       .  S
O498        C505   1.266       .  A
O499        C513   1.273       .  A
O500        C505   1.269       .  A
O501        C504   1.274       .  A
O502        C514   1.269       .  A
O503        C516   1.275       .  A
C504        O509   1.272       .  A
C504       C1537   1.489       .  S
C505        C536   1.461       .  S
O507        C510   1.265       .  A
O508        C510   1.270       .  A
C510        C554   1.455       .  S
O511        C516   1.273       .  A
O512        C514   1.266       .  A
C513        O515   1.270       .  A
C513        C967   1.488       .  S
C516        C957   1.490       .  S
Fe517       O533   2.070       .  S
Fe517       O523   2.074       .  S
Fe517       O530   2.073       .  S
Fe517       O522   2.059       .  S
Fe517       O528   1.954       .  S
Fe518       O521   2.055       .  S
Fe518       O525   2.073       .  S
Fe518       O529   2.047       .  S
Fe518       O534   2.074       .  S
Fe518       O528   1.954       .  S
Fe519       O537   2.082       .  S
Fe519       O524   2.047       .  S
Fe519       O531   2.070       .  S
Fe519       O520   2.061       .  S
Fe519       O528   1.960       .  S
O520        C527   1.266       .  A
O521        C535   1.270       .  A
O522        C527   1.270       .  A
O523        C526   1.273       .  A
O524        C536   1.266       .  A
O525        C538   1.273       .  A
C526        O531   1.275       .  A
C526        C944   1.488       .  S
O529        C532   1.266       .  A
O530        C532   1.269       .  A
C532        C558   1.461       .  S
O533        C538   1.274       .  A
O534        C536   1.270       .  A
C535        O537   1.274       .  A
C535       C1547   1.486       .  S
C538       C1007   1.490       .  S
Fe539       O555   2.068       .  S
Fe539       O545   2.064       .  S
Fe539       O552   2.057       .  S
Fe539       O544   2.070       .  S
Fe539       O550   1.953       .  S
Fe540       O543   2.072       .  S
Fe540       O547   2.068       .  S
Fe540       O551   2.058       .  S
Fe540       O556   2.047       .  S
Fe540       O550   1.958       .  S
Fe541       O559   2.061       .  S
Fe541       O546   2.072       .  S
Fe541       O553   2.074       .  S
Fe541       O542   2.048       .  S
Fe541       O550   1.955       .  S
O542        C549   1.266       .  A
O543        C557   1.272       .  A
O544        C549   1.268       .  A
O545        C548   1.273       .  A
O546        C558   1.270       .  A
O547        C560   1.274       .  A
C548        O553   1.274       .  A
C548       C1417   1.488       .  S
O551        C554   1.265       .  A
O552        C554   1.269       .  A
O555        C560   1.272       .  A
O556        C558   1.266       .  A
C557        O559   1.271       .  A
C557        C997   1.487       .  S
C560        C934   1.487       .  S
C561        C562   1.353   1_455  D
C561        C964   1.484       .  S
C561        C987   1.489       .  S
C562       C1037   1.489       .  S
C562       C1047   1.485       .  S
C563        C564   1.352       .  D
C563        C937   1.485       .  S
C563        C954   1.487       .  S
C564        C914   1.487       .  S
C564        C924   1.485       .  S
C565        C566   1.353   1_655  D
C565       C1167   1.488       .  S
C565       C1187   1.485       .  S
C566        C894   1.487       .  S
C566        C904   1.485       .  S
Fe567       O583   2.061       .  S
Fe567       O573   2.065       .  S
Fe567       O580   2.071       .  S
Fe567       O572   2.054       .  S
Fe567       O578   1.951       .  S
Fe568       O571   2.054       .  S
Fe568       O575   2.081       .  S
Fe568       O579   2.044       .  S
Fe568       O584   2.078       .  S
Fe568       O578   1.954       .  S
Fe569       O587   2.080       .  S
Fe569       O574   2.048       .  S
Fe569       O581   2.073       .  S
Fe569       O570   2.060       .  S
Fe569       O578   1.960       .  S
O570        C577   1.266       .  A
O571        C585   1.269       .  A
O572        C577   1.269       .  A
O573        C576   1.272       .  A
O574        C586   1.266       .  A
O575        C588   1.275       .  A
C576        O581   1.275       .  A
C576        C884   1.488       .  S
C577        C652   1.455       .  S
O579        C582   1.265       .  A
O580        C582   1.269       .  A
C582        C604   1.459       .  S
O583        C588   1.272       .  A
O584        C586   1.271       .  A
C585        O587   1.274       .  A
C585       C1634   1.484       .  S
C586        C626   1.464       .  S
C588        C874   1.488       .  S
Fe589       O605   2.069       .  S
Fe589       O595   2.063       .  S
Fe589       O602   2.044       .  S
Fe589       O594   2.057       .  S
Fe589       O600   1.958       .  S
Fe590       O593   2.072       .  S
Fe590       O597   2.065       .  S
Fe590       O601   2.070       .  S
Fe590       O606   2.052       .  S
Fe590       O600   1.955       .  S
Fe591       O609   2.069       .  S
Fe591       O596   2.074       .  S
Fe591       O603   2.075       .  S
Fe591       O592   2.059       .  S
Fe591       O600   1.955       .  S
O592        C599   1.270       .  A
O593        C607   1.274       .  A
O594        C599   1.265       .  A
O595        C598   1.273       .  A
O596        C608   1.269       .  A
O597        C610   1.271       .  A
C598        O603   1.274       .  A
C598        C927   1.487       .  S
C599        C630   1.456       .  S
O601        C604   1.269       .  A
O602        C604   1.266       .  A
O605        C610   1.271       .  A
O606        C608   1.267       .  A
C607        O609   1.274       .  A
C607        C907   1.491       .  S
C608        C648   1.465       .  S
C610        C864   1.488       .  S
Fe611       O627   2.069       .  S
Fe611       O617   2.066       .  S
Fe611       O624   2.055       .  S
Fe611       O616   2.068       .  S
Fe611       O622   1.959       .  S
Fe612       O615   2.070       .  S
Fe612       O619   2.072       .  S
Fe612       O623   2.069       .  S
Fe612       O628   2.062       .  S
Fe612       O622   1.959       .  S
Fe613       O631   2.069       .  S
Fe613       O618   2.052       .  S
Fe613       O625   2.068       .  S
Fe613       O614   2.049       .  S
Fe613       O622   1.962       .  S
O614        C621   1.266       .  A
O615        C629   1.273       .  A
O616        C621   1.269       .  A
O617        C620   1.272       .  A
O618        C630   1.264       .  A
O619        C632   1.274       .  A
C620        O625   1.271       .  A
C620        C854   1.488       .  S
C621        C643   1.461       .  S
O623        C626   1.268       .  A
O624        C626   1.267       .  A
O627        C632   1.273       .  A
O628        C630   1.270       .  A
C629        O631   1.274       .  A
C629        C917   1.489       .  S
C632       C1647   1.492       .  S
Fe633       O649   2.062       .  S
Fe633       O639   2.081       .  S
Fe633       O646   2.076       .  S
Fe633       O638   2.048       .  S
Fe633       O644   1.957       .  S
Fe634       O637   2.070       .  S
Fe634       O641   2.074       .  S
Fe634       O645   2.050       .  S
Fe634       O650   2.056       .  S
Fe634       O644   1.959       .  S
Fe635       O653   2.074       .  S
Fe635       O640   2.057       .  S
Fe635       O647   2.067       .  S
Fe635       O636   2.071       .  S
Fe635       O644   1.955       .  S
O636        C643   1.269       .  A
O637        C651   1.275       .  A
O638        C643   1.266       .  A
O639        C642   1.275       .  A
O640        C652   1.269       .  A
O641        C654   1.272       .  A
C642        O647   1.273       .  A
C642        C834   1.493       .  S
O645        C648   1.266       .  A
O646        C648   1.270       .  A
O649        C654   1.272       .  A
O650        C652   1.265       .  A
C651        O653   1.273       .  A
C651        C844   1.491       .  S
C654        C897   1.487       .  S
C655        C656   1.354   1_556  D
C655        C947   1.489       .  S
C655        C974   1.486       .  S
C656        C847   1.489       .  S
C656        C887   1.486       .  S
C657        C658   1.353       .  D
C657        C837   1.489       .  S
C657        C857   1.485       .  S
C658        C814   1.486       .  S
C658        C824   1.489       .  S
C659        C660   1.353   1_556  D
C659       C1477   1.485       .  S
C659       C1507   1.487       .  S
C660        C794   1.486       .  S
C660        C804   1.487       .  S
C661        C662   1.353   1_565  D
C661        C867   1.486       .  S
C661        C877   1.486       .  S
C662        C774   1.487       .  S
C662        C784   1.487       .  S
Fe663       O679   2.064       .  S
Fe663       O669   2.072       .  S
Fe663       O676   2.055       .  S
Fe663       O668   2.052       .  S
Fe663       O674   1.970       .  S
Fe664       O667   2.056       .  S
Fe664       O671   2.062       .  S
Fe664       O675   2.052       .  S
Fe664       O680   2.043       .  S
Fe664       O674   1.970       .  S
Fe665       O683   2.075       .  S
Fe665       O670   2.068       .  S
Fe665       O677   2.069       .  S
Fe665       O666   2.062       .  S
Fe665       O674   1.969       .  S
O666        C673   1.269       .  A
O667        C681   1.269       .  A
O668        C673   1.264       .  A
O669        C672   1.275       .  A
O670        C682   1.269       .  A
O671        C684   1.271       .  A
C672        O677   1.273       .  A
C672        C827   1.491       .  S
C673        C726   1.460       .  S
O675        C678   1.264       .  A
O676        C678   1.267       .  A
C678        C700   1.458       .  S
O679        C684   1.271       .  A
O680        C682   1.264       .  A
C681        O683   1.274       .  A
C681       C1677   1.491       .  S
C682        C744   1.459       .  S
C684       C1557   1.484       .  S
Fe685       O701   2.076       .  S
Fe685       O691   2.065       .  S
Fe685       O698   2.056       .  S
Fe685       O690   2.078       .  S
Fe685       O696   1.959       .  S
Fe686       O689   2.063       .  S
Fe686       O693   2.065       .  S
Fe686       O697   2.058       .  S
Fe686       O702   2.051       .  S
Fe686       O696   1.959       .  S
Fe687       O705   2.066       .  S
Fe687       O692   2.059       .  S
Fe687       O699   2.069       .  S
Fe687       O688   2.045       .  S
Fe687       O696   1.964       .  S
O688        C695   1.265       .  A
O689        C703   1.271       .  A
O690        C695   1.271       .  A
O691        C694   1.272       .  A
O692        C704   1.266       .  A
O693        C706   1.274       .  A
C694        O699   1.272       .  A
C694        C777   1.487       .  S
C695        C748   1.464       .  S
O697        C700   1.265       .  A
O698        C700   1.269       .  A
O701        C706   1.274       .  A
O702        C704   1.268       .  A
C703        O705   1.272       .  A
C703        C767   1.486       .  S
C704        C722   1.456       .  S
C706       C1567   1.487       .  S
Fe707       O723   2.066       .  S
Fe707       O713   2.066       .  S
Fe707       O720   2.057       .  S
Fe707       O712   2.070       .  S
Fe707       O718   1.962       .  S
Fe708       O711   2.067       .  S
Fe708       O715   2.076       .  S
Fe708       O719   2.053       .  S
Fe708       O724   2.057       .  S
Fe708       O718   1.964       .  S
Fe709       O727   2.067       .  S
Fe709       O714   2.058       .  S
Fe709       O721   2.069       .  S
Fe709       O710   2.049       .  S
Fe709       O718   1.965       .  S
O710        C717   1.265       .  A
O711        C725   1.271       .  A
O712        C717   1.269       .  A
O713        C716   1.272       .  A
O714        C726   1.265       .  A
O715        C728   1.276       .  A
C716        O721   1.272       .  A
C716        C807   1.490       .  S
C717        C739   1.462       .  S
O719        C722   1.264       .  A
O720        C722   1.268       .  A
O723        C728   1.272       .  A
O724        C726   1.268       .  A
C725        O727   1.273       .  A
C725        C817   1.487       .  S
C728        C757   1.492       .  S
Fe729       O745   2.064       .  S
Fe729       O735   2.070       .  S
Fe729       O742   2.066       .  S
Fe729       O734   2.051       .  S
Fe729       O740   1.955       .  S
Fe730       O733   2.063       .  S
Fe730       O737   2.076       .  S
Fe730       O741   2.049       .  S
Fe730       O746   2.071       .  S
Fe730       O740   1.954       .  S
Fe731       O749   2.079       .  S
Fe731       O736   2.053       .  S
Fe731       O743   2.068       .  S
Fe731       O732   2.071       .  S
Fe731       O740   1.954       .  S
O732        C739   1.269       .  A
O733        C747   1.273       .  A
O734        C739   1.267       .  A
O735        C738   1.272       .  A
O736        C748   1.268       .  A
O737        C750   1.273       .  A
C738        O743   1.274       .  A
C738        C797   1.488       .  S
O741        C744   1.267       .  A
O742        C744   1.268       .  A
O745        C750   1.273       .  A
O746        C748   1.268       .  A
C747        O749   1.275       .  A
C747        C787   1.490       .  S
C750       C1687   1.489       .  S
C751        C752   1.354   1_655  D
C751       C1297   1.488       .  S
C751       C1327   1.486       .  S
C752        C754   1.489       .  S
C752        C764   1.486       .  S
C753        C754   1.400       .  A
C753        C758   1.400       .  A
C753        H760   1.083       .  S
C754        C755   1.405       .  A
C755        C756   1.403       .  A
C755        F762   1.357       .  S
C756        C757   1.409       .  A
C756        H761   1.083       .  S
C757        C758   1.414       .  A
C758        F759   1.358       .  S
C763        C764   1.402       .  A
C763        C768   1.402       .  A
C763        H770   1.084       .  S
C764        C765   1.402       .  A
C765        C766   1.397       .  A
C765        F772   1.356       .  S
C766        C767   1.408       .  A
C766        H771   1.084       .  S
C767        C768   1.411       .  A
C768        F769   1.357       .  S
C773        C774   1.401       .  A
C773        C778   1.400       .  A
C773        H780   1.083       .  S
C774        C775   1.403       .  A
C775        C776   1.399       .  A
C775        F782   1.357       .  S
C776        C777   1.409       .  A
C776        H781   1.084       .  S
C777        C778   1.412       .  A
C778        F779   1.357       .  S
C783        C784   1.402       .  A
C783        C788   1.401       .  A
C783        H790   1.083       .  S
C784        C785   1.403       .  A
C785        C786   1.400       .  A
C785        F792   1.357       .  S
C786        C787   1.410       .  A
C786        H791   1.084       .  S
C787        C788   1.412       .  A
C788        F789   1.357       .  S
C793        C794   1.400       .  A
C793        C798   1.399       .  A
C793        H800   1.084       .  S
C794        C795   1.404       .  A
C795        C796   1.401       .  A
C795        F802   1.357       .  S
C796        C797   1.408       .  A
C796        H801   1.083       .  S
C797        C798   1.413       .  A
C798        F799   1.358       .  S
C803        C804   1.402       .  A
C803        C808   1.401       .  A
C803        H810   1.083       .  S
C804        C805   1.403       .  A
C805        C806   1.399       .  A
C805        F812   1.357       .  S
C806        C807   1.410       .  A
C806        H811   1.084       .  S
C807        C808   1.412       .  A
C808        F809   1.357       .  S
C813        C814   1.401       .  A
C813        C818   1.401       .  A
C813        H820   1.083       .  S
C814        C815   1.403       .  A
C815        C816   1.400       .  A
C815        F822   1.357       .  S
C816        C817   1.408       .  A
C816        H821   1.083       .  S
C817        C818   1.412       .  A
C818        F819   1.358       .  S
C823        C824   1.401       .  A
C823        C828   1.402       .  A
C823        H830   1.083       .  S
C824        C825   1.404       .  A
C825        C826   1.401       .  A
C825        F832   1.357       .  S
C826        C827   1.409       .  A
C826        H831   1.083       .  S
C827        C828   1.413       .  A
C828        F829   1.357       .  S
C833        C834   1.410       .  A
C833        C838   1.400       .  A
C833        H840   1.083       .  S
C834        C835   1.413       .  A
C835        C836   1.403       .  A
C835        F842   1.357       .  S
C836        C837   1.402       .  A
C836        H841   1.083       .  S
C837        C838   1.403       .  A
C838        F839   1.357       .  S
C843        C844   1.411       .  A
C843        C848   1.401       .  A
C843        H850   1.084       .  S
C844        C845   1.411       .  A
C845        C846   1.402       .  A
C845        F852   1.357       .  S
C846        C847   1.403       .  A
C846        H851   1.083       .  S
C847        C848   1.402       .  A
C848        F849   1.357       .  S
C853        C854   1.408       .  A
C853        C858   1.400       .  A
C853        H860   1.083       .  S
C854        C855   1.414       .  A
C855        C856   1.399       .  A
C855        F862   1.358       .  S
C856        C857   1.400       .  A
C856        H861   1.084       .  S
C857        C858   1.403       .  A
C858        F859   1.357       .  S
C863        C864   1.410       .  A
C863        C868   1.398       .  A
C863        H870   1.084       .  S
C864        C865   1.412       .  A
C865        C866   1.401       .  A
C865        F872   1.357       .  S
C866        C867   1.402       .  A
C866        H871   1.083       .  S
C867        C868   1.402       .  A
C868        F869   1.357       .  S
C873        C874   1.409       .  A
C873        C878   1.400       .  A
C873        H880   1.084       .  S
C874        C875   1.412       .  A
C875        C876   1.400       .  A
C875        F882   1.357       .  S
C876        C877   1.401       .  A
C876        H881   1.083       .  S
C877        C878   1.403       .  A
C878        F879   1.357       .  S
C883        C884   1.411       .  A
C883        C888   1.399       .  A
C883        H890   1.083       .  S
C884        C885   1.410       .  A
C885        C886   1.402       .  A
C885        F892   1.357       .  S
C886        C887   1.403       .  A
C886        H891   1.083       .  S
C887        C888   1.401       .  A
C888        F889   1.357       .  S
C893        C894   1.401       .  A
C893        C898   1.401       .  A
C893        H900   1.083       .  S
C894        C895   1.403       .  A
C895        C896   1.400       .  A
C895        F902   1.357       .  S
C896        C897   1.408       .  A
C896        H901   1.083       .  S
C897        C898   1.412       .  A
C898        F899   1.357       .  S
C903        C904   1.402       .  A
C903        C908   1.403       .  A
C903        H910   1.083       .  S
C904        C905   1.402       .  A
C905        C906   1.397       .  A
C905        F912   1.357       .  S
C906        C907   1.410       .  A
C906        H911   1.084       .  S
C907        C908   1.413       .  A
C908        F909   1.357       .  S
C913        C914   1.402       .  A
C913        C918   1.401       .  A
C913        H920   1.083       .  S
C914        C915   1.402       .  A
C915        C916   1.400       .  A
C915        F922   1.357       .  S
C916        C917   1.411       .  A
C916        H921   1.084       .  S
C917        C918   1.411       .  A
C918        F919   1.357       .  S
C923        C924   1.401       .  A
C923        C928   1.400       .  A
C923        H930   1.084       .  S
C924        C925   1.402       .  A
C925        C926   1.400       .  A
C925        F932   1.357       .  S
C926        C927   1.410       .  A
C926        H931   1.084       .  S
C927        C928   1.411       .  A
C928        F929   1.357       .  S
C933        C934   1.411       .  A
C933        C938   1.399       .  A
C933        H940   1.084       .  S
C934        C935   1.411       .  A
C935        C936   1.401       .  A
C935        F942   1.357       .  S
C936        C937   1.402       .  A
C936        H941   1.083       .  S
C937        C938   1.401       .  A
C938        F939   1.357       .  S
C943        C944   1.407       .  A
C943        C948   1.401       .  A
C943        H950   1.084       .  S
C944        C945   1.413       .  A
C945        C946   1.402       .  A
C945        F952   1.357       .  S
C946        C947   1.401       .  A
C946        H951   1.084       .  S
C947        C948   1.405       .  A
C948        F949   1.357       .  S
C953        C954   1.402       .  A
C953        C958   1.402       .  A
C953        H960   1.083       .  S
C954        C955   1.401       .  A
C955        C956   1.400       .  A
C955        F962   1.357       .  S
C956        C957   1.411       .  A
C956        H961   1.084       .  S
C957        C958   1.411       .  A
C958        F959   1.357       .  S
C963        C964   1.401       .  A
C963        C968   1.401       .  A
C963        H970   1.083       .  S
C964        C965   1.402       .  A
C965        C966   1.398       .  A
C965        F972   1.357       .  S
C966        C967   1.409       .  A
C966        H971   1.083       .  S
C967        C968   1.413       .  A
C968        F969   1.357       .  S
C973        C974   1.401       .  A
C973        C978   1.399       .  A
C973        H980   1.084       .  S
C974        C975   1.403       .  A
C975        C976   1.402       .  A
C975        F982   1.357       .  S
C976        C977   1.409       .  A
C976        H981   1.084       .  S
C977        C978   1.411       .  A
C978        F979   1.358       .  S
C983        C984   1.409       .  A
C983        C988   1.401       .  A
C983        H990   1.083       .  S
C984        C985   1.413       .  A
C985        C986   1.401       .  A
C985        F992   1.357       .  S
C986        C987   1.402       .  A
C986        H991   1.083       .  S
C987        C988   1.403       .  A
C988        F989   1.357       .  S
C993        C994   1.401       .  A
C993        C998   1.401       .  A
C993       H1000   1.083       .  S
C994        C995   1.402       .  A
C995        C996   1.398       .  A
C995       F1002   1.357       .  S
C996        C997   1.409       .  A
C996       H1001   1.084       .  S
C997        C998   1.412       .  A
C998        F999   1.357       .  S
C1003      C1004   1.401       .  A
C1003      C1008   1.400       .  A
C1003      H1010   1.084       .  S
C1004      C1005   1.404       .  A
C1005      C1006   1.402       .  A
C1005      F1012   1.357       .  S
C1006      C1007   1.408       .  A
C1006      H1011   1.083       .  S
C1007      C1008   1.413       .  A
C1008      F1009   1.358       .  S
C1013      C1014   1.408       .  A
C1013      C1018   1.401       .  A
C1013      H1020   1.083       .  S
C1014      C1015   1.414       .  A
C1015      C1016   1.399       .  A
C1015      F1022   1.358       .  S
C1016      C1017   1.400       .  A
C1016      H1021   1.084       .  S
C1017      C1018   1.404       .  A
C1018      F1019   1.356       .  S
C1023      C1024   1.410       .  A
C1023      C1028   1.400       .  A
C1023      H1030   1.084       .  S
C1024      C1025   1.412       .  A
C1025      C1026   1.401       .  A
C1025      F1032   1.357       .  S
C1026      C1027   1.401       .  A
C1026      H1031   1.083       .  S
C1027      C1028   1.403       .  A
C1028      F1029   1.357       .  S
C1033      C1034   1.408       .  A
C1033      C1038   1.401       .  A
C1033      H1040   1.083       .  S
C1034      C1035   1.412       .  A
C1035      C1036   1.402       .  A
C1035      F1042   1.357       .  S
C1036      C1037   1.402       .  A
C1036      H1041   1.083       .  S
C1037      C1038   1.404       .  A
C1038      F1039   1.357       .  S
C1043      C1044   1.410       .  A
C1043      C1048   1.401       .  A
C1043      H1050   1.083       .  S
C1044      C1045   1.413       .  A
C1045      C1046   1.398       .  A
C1045      F1052   1.357       .  S
C1046      C1047   1.400       .  A
C1046      H1051   1.084       .  S
C1047      C1048   1.402       .  A
C1048      F1049   1.357       .  S
C1053      C1054   1.402       .  A
C1053      C1058   1.402       .  A
C1053      H1060   1.083       .  S
C1054      C1055   1.402       .  A
C1055      C1056   1.399       .  A
C1055      F1062   1.357       .  S
C1056      C1057   1.411       .  A
C1056      H1061   1.084       .  S
C1057      C1058   1.412       .  A
C1058      F1059   1.357       .  S
C1063      C1064   1.400       .  A
C1063      C1068   1.400       .  A
C1063      H1070   1.084       .  S
C1064      C1065   1.403       .  A
C1065      C1066   1.400       .  A
C1065      F1072   1.357       .  S
C1066      C1067   1.410       .  A
C1066      H1071   1.084       .  S
C1067      C1068   1.414       .  A
C1068      F1069   1.357       .  S
C1073      C1074   1.411       .  A
C1073      C1078   1.398       .  A
C1073      H1080   1.084       .  S
C1074      C1075   1.412       .  A
C1075      C1076   1.403       .  A
C1075      F1082   1.357       .  S
C1076      C1077   1.403       .  A
C1076      H1081   1.083       .  S
C1077      C1078   1.401       .  A
C1078      F1079   1.357       .  S
C1083      C1084   1.411       .  A
C1083      C1088   1.397       .  A
C1083      H1090   1.084       .  S
C1084      C1085   1.411       .  A
C1085      C1086   1.402       .  A
C1085      F1092   1.357       .  S
C1086      C1087   1.403       .  A
C1086      H1091   1.083       .  S
C1087      C1088   1.400       .  A
C1088      F1089   1.357       .  S
C1093      C1094   1.402       .  A
C1093      C1098   1.400       .  A
C1093      H1100   1.083       .  S
C1094      C1095   1.402       .  A
C1095      C1096   1.400       .  A
C1095      F1102   1.357       .  S
C1096      C1097   1.411       .  A
C1096      H1101   1.084       .  S
C1097      C1098   1.411       .  A
C1098      F1099   1.357       .  S
C1103      C1104   1.411       .  A
C1103      C1108   1.400       .  A
C1103      H1110   1.084       .  S
C1104      C1105   1.411       .  A
C1105      C1106   1.401       .  A
C1105      F1112   1.357       .  S
C1106      C1107   1.402       .  A
C1106      H1111   1.083       .  S
C1107      C1108   1.401       .  A
C1108      F1109   1.357       .  S
C1113      C1114   1.402       .  A
C1113      C1118   1.400       .  A
C1113      H1120   1.084       .  S
C1114      C1115   1.402       .  A
C1115      C1116   1.401       .  A
C1115      F1122   1.357       .  S
C1116      C1117   1.410       .  A
C1116      H1121   1.084       .  S
C1117      C1118   1.411       .  A
C1118      F1119   1.357       .  S
C1123      C1124   1.401       .  A
C1123      C1128   1.400       .  A
C1123      H1130   1.084       .  S
C1124      C1125   1.402       .  A
C1125      C1126   1.401       .  A
C1125      F1132   1.357       .  S
C1126      C1127   1.410       .  A
C1126      H1131   1.084       .  S
C1127      C1128   1.411       .  A
C1128      F1129   1.357       .  S
C1133      C1134   1.402       .  A
C1133      C1138   1.403       .  A
C1133      H1140   1.083       .  S
C1134      C1135   1.402       .  A
C1135      C1136   1.397       .  A
C1135      F1142   1.357       .  S
C1136      C1137   1.410       .  A
C1136      H1141   1.083       .  S
C1137      C1138   1.413       .  A
C1138      F1139   1.357       .  S
C1143      C1144   1.401       .  A
C1143      C1148   1.399       .  A
C1143      H1150   1.084       .  S
C1144      C1145   1.404       .  A
C1145      C1146   1.401       .  A
C1145      F1152   1.356       .  S
C1146      C1147   1.409       .  A
C1146      H1151   1.083       .  S
C1147      C1148   1.412       .  A
C1148      F1149   1.358       .  S
C1153      C1154   1.410       .  A
C1153      C1158   1.401       .  A
C1153      H1160   1.084       .  S
C1154      C1155   1.411       .  A
C1155      C1156   1.400       .  A
C1155      F1162   1.357       .  S
C1156      C1157   1.402       .  A
C1156      H1161   1.084       .  S
C1157      C1158   1.403       .  A
C1158      F1159   1.356       .  S
C1163      C1164   1.410       .  A
C1163      C1168   1.401       .  A
C1163      H1170   1.084       .  S
C1164      C1165   1.412       .  A
C1165      C1166   1.401       .  A
C1165      F1172   1.357       .  S
C1166      C1167   1.402       .  A
C1166      H1171   1.084       .  S
C1167      C1168   1.403       .  A
C1168      F1169   1.356       .  S
C1173      C1174   1.406       .  A
C1173      C1178   1.399       .  A
C1173      H1180   1.083       .  S
C1174      C1175   1.413       .  A
C1175      C1176   1.400       .  A
C1175      F1182   1.358       .  S
C1176      C1177   1.400       .  A
C1176      H1181   1.084       .  S
C1177      C1178   1.404       .  A
C1178      F1179   1.356       .  S
C1183      C1184   1.409       .  A
C1183      C1188   1.399       .  A
C1183      H1190   1.083       .  S
C1184      C1185   1.414       .  A
C1185      C1186   1.400       .  A
C1185      F1192   1.357       .  S
C1186      C1187   1.400       .  A
C1186      H1191   1.084       .  S
C1187      C1188   1.403       .  A
C1188      F1189   1.357       .  S
C1193      C1194   1.402       .  A
C1193      C1198   1.401       .  A
C1193      H1200   1.083       .  S
C1194      C1195   1.403       .  A
C1195      C1196   1.400       .  A
C1195      F1202   1.357       .  S
C1196      C1197   1.408       .  A
C1196      H1201   1.084       .  S
C1197      C1198   1.411       .  A
C1198      F1199   1.357       .  S
C1203      C1204   1.410       .  A
C1203      C1208   1.398       .  A
C1203      H1210   1.083       .  S
C1204      C1205   1.413       .  A
C1205      C1206   1.402       .  A
C1205      F1212   1.357       .  S
C1206      C1207   1.401       .  A
C1206      H1211   1.083       .  S
C1207      C1208   1.402       .  A
C1208      F1209   1.357       .  S
C1213      C1214   1.409       .  A
C1213      C1218   1.401       .  A
C1213      H1220   1.083       .  S
C1214      C1215   1.415       .  A
C1215      C1216   1.400       .  A
C1215      F1222   1.358       .  S
C1216      C1217   1.400       .  A
C1216      H1221   1.084       .  S
C1217      C1218   1.403       .  A
C1218      F1219   1.357       .  S
C1223      C1224   1.400       .  A
C1223      C1228   1.399       .  A
C1223      H1230   1.083       .  S
C1224      C1225   1.403       .  A
C1225      C1226   1.401       .  A
C1225      F1232   1.357       .  S
C1226      C1227   1.408       .  A
C1226      H1231   1.083       .  S
C1227      C1228   1.413       .  A
C1228      F1229   1.358       .  S
C1233      C1234   1.401       .  A
C1233      C1238   1.400       .  A
C1233      H1240   1.083       .  S
C1234      C1235   1.404       .  A
C1235      C1236   1.400       .  A
C1235      F1242   1.357       .  S
C1236      C1237   1.409       .  A
C1236      H1241   1.084       .  S
C1237      C1238   1.413       .  A
C1238      F1239   1.357       .  S
C1243      C1244   1.402       .  A
C1243      C1248   1.401       .  A
C1243      H1250   1.083       .  S
C1244      C1245   1.402       .  A
C1245      C1246   1.400       .  A
C1245      F1252   1.357       .  S
C1246      C1247   1.410       .  A
C1246      H1251   1.084       .  S
C1247      C1248   1.412       .  A
C1248      F1249   1.357       .  S
C1253      C1254   1.402       .  A
C1253      C1258   1.401       .  A
C1253      H1260   1.083       .  S
C1254      C1255   1.402       .  A
C1255      C1256   1.399       .  A
C1255      F1262   1.357       .  S
C1256      C1257   1.410       .  A
C1256      H1261   1.084       .  S
C1257      C1258   1.412       .  A
C1258      F1259   1.357       .  S
C1263      C1264   1.401       .  A
C1263      C1268   1.400       .  A
C1263      H1270   1.083       .  S
C1264      C1265   1.404       .  A
C1265      C1266   1.400       .  A
C1265      F1272   1.357       .  S
C1266      C1267   1.408       .  A
C1266      H1271   1.084       .  S
C1267      C1268   1.413       .  A
C1268      F1269   1.357       .  S
C1273      C1274   1.402       .  A
C1273      C1278   1.402       .  A
C1273      H1280   1.083       .  S
C1274      C1275   1.402       .  A
C1275      C1276   1.399       .  A
C1275      F1282   1.357       .  S
C1276      C1277   1.410       .  A
C1276      H1281   1.084       .  S
C1277      C1278   1.412       .  A
C1278      F1279   1.357       .  S
C1283      C1284   1.408       .  A
C1283      C1288   1.401       .  A
C1283      H1290   1.083       .  S
C1284      C1285   1.415       .  A
C1285      C1286   1.399       .  A
C1285      F1292   1.358       .  S
C1286      C1287   1.399       .  A
C1286      H1291   1.084       .  S
C1287      C1288   1.404       .  A
C1288      F1289   1.357       .  S
C1293      C1294   1.409       .  A
C1293      C1298   1.399       .  A
C1293      H1300   1.084       .  S
C1294      C1295   1.411       .  A
C1295      C1296   1.402       .  A
C1295      F1302   1.357       .  S
C1296      C1297   1.402       .  A
C1296      H1301   1.083       .  S
C1297      C1298   1.403       .  A
C1298      F1299   1.356       .  S
C1303      C1304   1.410       .  A
C1303      C1308   1.400       .  A
C1303      H1310   1.084       .  S
C1304      C1305   1.412       .  A
C1305      C1306   1.402       .  A
C1305      F1312   1.357       .  S
C1306      C1307   1.402       .  A
C1306      H1311   1.084       .  S
C1307      C1308   1.402       .  A
C1308      F1309   1.357       .  S
C1313      C1314   1.401       .  A
C1313      C1318   1.400       .  A
C1313      H1320   1.084       .  S
C1314      C1315   1.404       .  A
C1315      C1316   1.400       .  A
C1315      F1322   1.357       .  S
C1316      C1317   1.409       .  A
C1316      H1321   1.084       .  S
C1317      C1318   1.412       .  A
C1318      F1319   1.357       .  S
C1323      C1324   1.409       .  A
C1323      C1328   1.401       .  A
C1323      H1330   1.083       .  S
C1324      C1325   1.412       .  A
C1325      C1326   1.399       .  A
C1325      F1332   1.357       .  S
C1326      C1327   1.401       .  A
C1326      H1331   1.083       .  S
C1327      C1328   1.403       .  A
C1328      F1329   1.357       .  S
C1333      C1334   1.401       .  A
C1333      C1338   1.401       .  A
C1333      H1340   1.083       .  S
C1334      C1335   1.403       .  A
C1335      C1336   1.399       .  A
C1335      F1342   1.357       .  S
C1336      C1337   1.409       .  A
C1336      H1341   1.084       .  S
C1337      C1338   1.412       .  A
C1338      F1339   1.357       .  S
C1343      C1344   1.410       .  A
C1343      C1348   1.400       .  A
C1343      H1350   1.083       .  S
C1344      C1345   1.413       .  A
C1345      C1346   1.401       .  A
C1345      F1352   1.357       .  S
C1346      C1347   1.401       .  A
C1346      H1351   1.083       .  S
C1347      C1348   1.403       .  A
C1348      F1349   1.357       .  S
C1353      C1354   1.401       .  A
C1353      C1358   1.401       .  A
C1353      H1360   1.083       .  S
C1354      C1355   1.403       .  A
C1355      C1356   1.402       .  A
C1355      F1362   1.357       .  S
C1356      C1357   1.409       .  A
C1356      H1361   1.083       .  S
C1357      C1358   1.414       .  A
C1358      F1359   1.358       .  S
C1363      C1364   1.399       .  A
C1363      C1368   1.397       .  A
C1363      H1370   1.084       .  S
C1364      C1365   1.403       .  A
C1365      C1366   1.401       .  A
C1365      F1372   1.357       .  S
C1366      C1367   1.409       .  A
C1366      H1371   1.083       .  S
C1367      C1368   1.414       .  A
C1368      F1369   1.358       .  S
C1373      C1374   1.412       .  A
C1373      C1378   1.400       .  A
C1373      H1380   1.084       .  S
C1374      C1375   1.412       .  A
C1375      C1376   1.402       .  A
C1375      F1382   1.357       .  S
C1376      C1377   1.403       .  A
C1376      H1381   1.084       .  S
C1377      C1378   1.401       .  A
C1378      F1379   1.357       .  S
C1383      C1384   1.398       .  A
C1383      C1388   1.398       .  A
C1383      H1390   1.084       .  S
C1384      C1385   1.404       .  A
C1385      C1386   1.401       .  A
C1385      F1392   1.356       .  S
C1386      C1387   1.407       .  A
C1386      H1391   1.083       .  S
C1387      C1388   1.415       .  A
C1388      F1389   1.358       .  S
C1393      C1394   1.401       .  A
C1393      C1398   1.402       .  A
C1393      H1400   1.083       .  S
C1394      C1395   1.403       .  A
C1395      C1396   1.399       .  A
C1395      F1402   1.357       .  S
C1396      C1397   1.410       .  A
C1396      H1401   1.083       .  S
C1397      C1398   1.413       .  A
C1398      F1399   1.357       .  S
C1403      C1404   1.401       .  A
C1403      C1408   1.401       .  A
C1403      H1410   1.083       .  S
C1404      C1405   1.403       .  A
C1405      C1406   1.399       .  A
C1405      F1412   1.357       .  S
C1406      C1407   1.408       .  A
C1406      H1411   1.084       .  S
C1407      C1408   1.412       .  A
C1408      F1409   1.357       .  S
C1413      C1414   1.401       .  A
C1413      C1418   1.398       .  A
C1413      H1420   1.083       .  S
C1414      C1415   1.403       .  A
C1415      C1416   1.402       .  A
C1415      F1422   1.357       .  S
C1416      C1417   1.410       .  A
C1416      H1421   1.083       .  S
C1417      C1418   1.412       .  A
C1418      F1419   1.358       .  S
C1423      C1424   1.401       .  A
C1423      C1428   1.399       .  A
C1423      H1430   1.083       .  S
C1424      C1425   1.403       .  A
C1425      C1426   1.401       .  A
C1425      F1432   1.357       .  S
C1426      C1427   1.410       .  A
C1426      H1431   1.084       .  S
C1427      C1428   1.411       .  A
C1428      F1429   1.357       .  S
C1433      C1434   1.402       .  A
C1433      C1438   1.403       .  A
C1433      H1440   1.083       .  S
C1434      C1435   1.401       .  A
C1435      C1436   1.398       .  A
C1435      F1442   1.358       .  S
C1436      C1437   1.411       .  A
C1436      H1441   1.083       .  S
C1437      C1438   1.412       .  A
C1438      F1439   1.357       .  S
C1443      C1444   1.401       .  A
C1443      C1448   1.400       .  A
C1443      H1450   1.083       .  S
C1444      C1445   1.403       .  A
C1445      C1446   1.400       .  A
C1445      F1452   1.357       .  S
C1446      C1447   1.408       .  A
C1446      H1451   1.083       .  S
C1447      C1448   1.411       .  A
C1448      F1449   1.358       .  S
C1453      C1454   1.409       .  A
C1453      C1458   1.402       .  A
C1453      H1460   1.083       .  S
C1454      C1455   1.416       .  A
C1455      C1456   1.398       .  A
C1455      F1462   1.358       .  S
C1456      C1457   1.399       .  A
C1456      H1461   1.084       .  S
C1457      C1458   1.404       .  A
C1458      F1459   1.357       .  S
C1463      C1464   1.399       .  A
C1463      C1468   1.398       .  A
C1463      H1470   1.084       .  S
C1464      C1465   1.406       .  A
C1465      C1466   1.400       .  A
C1465      F1472   1.357       .  S
C1466      C1467   1.408       .  A
C1466      H1471   1.084       .  S
C1467      C1468   1.413       .  A
C1468      F1469   1.357       .  S
C1473      C1474   1.410       .  A
C1473      C1478   1.398       .  A
C1473      H1480   1.084       .  S
C1474      C1475   1.412       .  A
C1475      C1476   1.401       .  A
C1475      F1482   1.357       .  S
C1476      C1477   1.401       .  A
C1476      H1481   1.083       .  S
C1477      C1478   1.402       .  A
C1478      F1479   1.357       .  S
C1483      C1484   1.409       .  A
C1483      C1488   1.411       .  A
C1483      H1490   1.083       .  S
C1484      C1485   1.418       .  A
C1485      C1486   1.389       .  A
C1485      F1492   1.359       .  S
C1486      C1487   1.396       .  A
C1486      H1491   1.082       .  S
C1487      C1488   1.410       .  A
C1488      F1489   1.356       .  S
C1493      C1494   1.400       .  A
C1493      C1498   1.400       .  A
C1493      H1500   1.083       .  S
C1494      C1495   1.403       .  A
C1495      C1496   1.400       .  A
C1495      F1502   1.357       .  S
C1496      C1497   1.409       .  A
C1496      H1501   1.083       .  S
C1497      C1498   1.414       .  A
C1498      F1499   1.357       .  S
C1503      C1504   1.408       .  A
C1503      C1508   1.401       .  A
C1503      H1510   1.083       .  S
C1504      C1505   1.413       .  A
C1505      C1506   1.400       .  A
C1505      F1512   1.357       .  S
C1506      C1507   1.401       .  A
C1506      H1511   1.084       .  S
C1507      C1508   1.404       .  A
C1508      F1509   1.357       .  S
C1513      C1514   1.410       .  A
C1513      C1518   1.402       .  A
C1513      H1520   1.083       .  S
C1514      C1515   1.413       .  A
C1515      C1516   1.400       .  A
C1515      F1522   1.357       .  S
C1516      C1517   1.401       .  A
C1516      H1521   1.084       .  S
C1517      C1518   1.403       .  A
C1518      F1519   1.357       .  S
C1523      C1524   1.401       .  A
C1523      C1528   1.400       .  A
C1523      H1530   1.083       .  S
C1524      C1525   1.404       .  A
C1525      C1526   1.398       .  A
C1525      F1532   1.356       .  S
C1526      C1527   1.407       .  A
C1526      H1531   1.083       .  S
C1527      C1528   1.413       .  A
C1528      F1529   1.358       .  S
C1533      C1534   1.399       .  A
C1533      C1538   1.397       .  A
C1533      H1540   1.084       .  S
C1534      C1535   1.403       .  A
C1535      C1536   1.402       .  A
C1535      F1542   1.357       .  S
C1536      C1537   1.409       .  A
C1536      H1541   1.083       .  S
C1537      C1538   1.414       .  A
C1538      F1539   1.358       .  S
C1543      C1544   1.401       .  A
C1543      C1548   1.399       .  A
C1543      H1550   1.083       .  S
C1544      C1545   1.404       .  A
C1545      C1546   1.401       .  A
C1545      F1552   1.356       .  S
C1546      C1547   1.408       .  A
C1546      H1551   1.083       .  S
C1547      C1548   1.412       .  A
C1548      F1549   1.358       .  S
C1553      C1554   1.400       .  A
C1553      C1558   1.398       .  A
C1553      H1560   1.084       .  S
C1554      C1555   1.403       .  A
C1555      C1556   1.399       .  A
C1555      F1562   1.357       .  S
C1556      C1557   1.409       .  A
C1556      H1561   1.084       .  S
C1557      C1558   1.412       .  A
C1558      F1559   1.357       .  S
C1563      C1564   1.402       .  A
C1563      C1568   1.401       .  A
C1563      H1570   1.083       .  S
C1564      C1565   1.404       .  A
C1565      C1566   1.401       .  A
C1565      F1572   1.357       .  S
C1566      C1567   1.408       .  A
C1566      H1571   1.084       .  S
C1567      C1568   1.411       .  A
C1568      F1569   1.357       .  S
C1573      C1574   1.401       .  A
C1573      C1578   1.400       .  A
C1573      H1580   1.084       .  S
C1574      C1575   1.402       .  A
C1575      C1576   1.398       .  A
C1575      F1582   1.357       .  S
C1576      C1577   1.409       .  A
C1576      H1581   1.084       .  S
C1577      C1578   1.412       .  A
C1578      F1579   1.357       .  S
C1583      C1584   1.400       .  A
C1583      C1588   1.399       .  A
C1583      H1590   1.083       .  S
C1584      C1585   1.405       .  A
C1585      C1586   1.403       .  A
C1585      F1592   1.356       .  S
C1586      C1587   1.408       .  A
C1586      H1591   1.083       .  S
C1587      C1588   1.413       .  A
C1588      F1589   1.358       .  S
C1593      C1594   1.400       .  A
C1593      C1598   1.400       .  A
C1593      H1600   1.084       .  S
C1594      C1595   1.405       .  A
C1595      C1596   1.402       .  A
C1595      F1602   1.357       .  S
C1596      C1597   1.408       .  A
C1596      H1601   1.083       .  S
C1597      C1598   1.414       .  A
C1598      F1599   1.358       .  S
C1603      C1604   1.400       .  A
C1603      C1608   1.399       .  A
C1603      H1610   1.083       .  S
C1604      C1605   1.404       .  A
C1605      C1606   1.401       .  A
C1605      F1612   1.357       .  S
C1606      C1607   1.408       .  A
C1606      H1611   1.083       .  S
C1607      C1608   1.414       .  A
C1608      F1609   1.358       .  S
C1613      C1614   1.401       .  A
C1613      C1618   1.400       .  A
C1613      H1620   1.084       .  S
C1614      C1615   1.403       .  A
C1615      C1616   1.402       .  A
C1615      F1622   1.357       .  S
C1616      C1617   1.409       .  A
C1616      H1621   1.083       .  S
C1617      C1618   1.413       .  A
C1618      F1619   1.358       .  S
C1623      C1624   1.402       .  A
C1623      C1628   1.401       .  A
C1623      H1630   1.083       .  S
C1624      C1625   1.402       .  A
C1625      C1626   1.398       .  A
C1625      F1632   1.357       .  S
C1626      C1627   1.410       .  A
C1626      H1631   1.083       .  S
C1627      C1628   1.412       .  A
C1628      F1629   1.357       .  S
C1633      C1634   1.406       .  A
C1633      C1638   1.400       .  A
C1633      H1640   1.083       .  S
C1634      C1635   1.412       .  A
C1635      C1636   1.399       .  A
C1635      F1642   1.358       .  S
C1636      C1637   1.401       .  A
C1636      H1641   1.084       .  S
C1637      C1638   1.405       .  A
C1638      F1639   1.355       .  S
C1643      C1644   1.403       .  A
C1643      C1648   1.404       .  A
C1643      H1650   1.083       .  S
C1644      C1645   1.401       .  A
C1645      C1646   1.397       .  A
C1645      F1652   1.357       .  S
C1646      C1647   1.411       .  A
C1646      H1651   1.084       .  S
C1647      C1648   1.412       .  A
C1648      F1649   1.357       .  S
C1653      C1654   1.402       .  A
C1653      C1658   1.401       .  A
C1653      H1660   1.083       .  S
C1654      C1655   1.402       .  A
C1655      C1656   1.399       .  A
C1655      F1662   1.357       .  S
C1656      C1657   1.410       .  A
C1656      H1661   1.083       .  S
C1657      C1658   1.412       .  A
C1658      F1659   1.357       .  S
C1663      C1664   1.408       .  A
C1663      C1668   1.397       .  A
C1663      H1670   1.083       .  S
C1664      C1665   1.412       .  A
C1665      C1666   1.403       .  A
C1665      F1672   1.357       .  S
C1666      C1667   1.403       .  A
C1666      H1671   1.083       .  S
C1667      C1668   1.403       .  A
C1668      F1669   1.356       .  S
C1673      C1674   1.399       .  A
C1673      C1678   1.398       .  A
C1673      H1680   1.084       .  S
C1674      C1675   1.403       .  A
C1675      C1676   1.402       .  A
C1675      F1682   1.356       .  S
C1676      C1677   1.409       .  A
C1676      H1681   1.083       .  S
C1677      C1678   1.416       .  A
C1678      F1679   1.358       .  S
C1683      C1684   1.401       .  A
C1683      C1688   1.400       .  A
C1683      H1690   1.084       .  S
C1684      C1685   1.403       .  A
C1685      C1686   1.401       .  A
C1685      F1692   1.356       .  S
C1686      C1687   1.409       .  A
C1686      H1691   1.083       .  S
C1687      C1688   1.412       .  A
C1688      F1689   1.358       .  S
C1693      C1694   1.401       .  A
C1693      C1698   1.401       .  A
C1693      H1700   1.083       .  S
C1694      C1695   1.403       .  A
C1695      C1696   1.399       .  A
C1695      F1702   1.357       .  S
C1696      C1697   1.409       .  A
C1696      H1701   1.084       .  S
C1697      C1698   1.413       .  A
C1698      F1699   1.357       .  S
C1703      C1704   1.409       .  A
C1703      C1708   1.400       .  A
C1703      H1710   1.083       .  S
C1704      C1705   1.414       .  A
C1705      C1706   1.399       .  A
C1705      F1712   1.358       .  S
C1706      C1707   1.400       .  A
C1706      H1711   1.084       .  S
C1707      C1708   1.402       .  A
C1708      F1709   1.357       .  S
