geometry optimzed in LAMMPS
_audit_creation_date              2020-11-30 
_audit_creation_method            'lammps2cif' 
_symmetry_space_group_name_H-M    'P1' 
_symmetry_Int_Tables_number       1 
_symmetry_cell_setting            triclinic 
loop_ 
_symmetry_equiv_pos_as_xyz 
  x,y,z 
_cell_length_a                    42.5342628131233 
_cell_length_b                    41.658695114027054 
_cell_length_c                    42.41061052216945 
_cell_angle_alpha                 89.90458657338897 
_cell_angle_beta                  89.58165591416855 
_cell_angle_gamma                 90.12690579754592 
loop_ 
_atom_site_label 
_atom_site_type_symbol 
_atom_site_fract_x 
_atom_site_fract_y 
_atom_site_fract_z 
_atom_site_charge 
C1          C  0.36542428  0.36900544  0.48464734     0.02970
C2          C  0.37460240  0.33610237  0.48385540    -0.13170
C3          C  0.35270438  0.31291164  0.49357910     0.00480
C4          C  0.32500153  0.32436815  0.00664963    -0.11700
C5          C  0.31151525  0.35270299  0.99604819     0.02970
C6          C  0.33277158  0.37696554  0.98699437    -0.11120
H7          H  0.39837075  0.32920914  0.47760545     0.08560
H8          H  0.31112285  0.30843124  0.02016769     0.06090
H9          H  0.32466008  0.40128675  0.98331815     0.05940
C10         C  0.36937287  0.22468157  0.50766555     0.02970
C11         C  0.37712622  0.25717914  0.50114370    -0.13170
C12         C  0.35387960  0.27723105  0.48899595     0.00480
C13         C  0.32553329  0.26249001  0.98021385    -0.11700
C14         C  0.31449383  0.23571827  0.99686990     0.02970
C15         C  0.33726584  0.21540947  0.50978402    -0.11120
H16         H  0.40076974  0.26620673  0.50439958     0.08560
H17         H  0.30986718  0.27527378  0.96527864     0.06090
H18         H  0.33053810  0.19233446  0.51953637     0.05940
C19         C  0.22574306  0.22257931  0.99408698     0.02970
C20         C  0.25813109  0.21478708  0.99169593    -0.13170
C21         C  0.28026272  0.23528973  0.00548506     0.00480
C22         C  0.26855844  0.26162785  0.02248823    -0.11700
C23         C  0.23939395  0.27513053  0.01458560     0.02970
C24         C  0.21690230  0.25432294  0.00207995    -0.11120
H25         H  0.26563355  0.19246524  0.98099655     0.08560
H26         H  0.28373239  0.27419371  0.03830144     0.06090
H27         H  0.19293524  0.26246623  0.99919975     0.05940
C28         C  0.22449570  0.36656423  0.01496046     0.02970
C29         C  0.25533563  0.37582657  0.00447761    -0.13170
C30         C  0.27607170  0.35206163  0.99406410     0.00480
C31         C  0.26249412  0.32209893  0.98822351    -0.11700
C32         C  0.23902778  0.31051799  0.00821444     0.02970
C33         C  0.21920696  0.33347712  0.02208848    -0.11120
H34         H  0.26263353  0.40053681  0.50229733     0.08560
H35         H  0.27449642  0.30559374  0.97344402     0.06090
H36         H  0.19869519  0.32581800  0.03539416     0.05940
C37         C  0.36788709  0.03659306  0.32107323     0.02970
C38         C  0.33548046  0.03104365  0.32827375    -0.13170
C39         C  0.31250856  0.04534377  0.30922944     0.00480
C40         C  0.32333891  0.06454128  0.28443376    -0.11700
C41         C  0.35224120  0.05779014  0.26994515     0.02970
C42         C  0.37593735  0.04652656  0.28980242    -0.11120
H43         H  0.32850436  0.01826084  0.34946124     0.08560
H44         H  0.30725950  0.07992314  0.27279206     0.06090
H45         H  0.39994244  0.04682670  0.28131943     0.05940
C46         C  0.22485667  0.05465699  0.32407625     0.02970
C47         C  0.25703778  0.05160471  0.33202964    -0.13170
C48         C  0.27789606  0.03819945  0.31000132     0.00480
C49         C  0.26464422  0.02587904  0.28231489    -0.11700
C50         C  0.23686256  0.03903235  0.27022863     0.02970
C51         C  0.21566832  0.05213294  0.29212166    -0.11120
H52         H  0.26527611  0.05839541  0.35518798     0.08560
H53         H  0.27768317  0.00930514  0.26822862     0.06090
H54         H  0.19236131  0.05927096  0.28480670     0.05940
C55         C  0.22277651  0.03790063  0.18050001     0.02970
C56         C  0.21579481  0.03362772  0.21326346    -0.13170
C57         C  0.23657123  0.04642845  0.23557404     0.00480
C58         C  0.26266971  0.06272558  0.22349163    -0.11700
C59         C  0.27635191  0.05215918  0.19529899     0.02970
C60         C  0.25564065  0.03901455  0.17313759    -0.11120
H61         H  0.19529114  0.02053824  0.22121968     0.08560
H62         H  0.27577284  0.07789046  0.23855837     0.06090
H63         H  0.26490595  0.02954287  0.15129718     0.05940
C64         C  0.36590642  0.05899469  0.17921625     0.02970
C65         C  0.37316299  0.06361908  0.21189611    -0.13170
C66         C  0.35152045  0.05279492  0.23477318     0.00480
C67         C  0.32465706  0.03803964  0.22321273    -0.11700
C68         C  0.31156340  0.04869352  0.19519101     0.02970
C69         C  0.33300145  0.05971480  0.17222135    -0.11120
H70         H  0.39458888  0.07512939  0.21934910     0.08560
H71         H  0.31082274  0.02413321  0.23873231     0.06090
H72         H  0.32438240  0.06834764  0.14988184     0.05940
C73         C  0.03992015  0.22589368  0.31964870     0.02970
C74         C  0.03436692  0.25926142  0.32448042    -0.13170
C75         C  0.02541962  0.27942333  0.29917335     0.00480
C76         C  0.02410546  0.26512964  0.26912747    -0.11700
C77         C  0.03716844  0.23510566  0.26311892     0.02970
C78         C  0.04207052  0.21436348  0.28830108    -0.11120
H79         H  0.03687815  0.26912978  0.34786719     0.08560
H80         H  0.01850578  0.27871175  0.24836783     0.06090
H81         H  0.04831462  0.18974939  0.28327234     0.05940
C82         C  0.04671524  0.36550918  0.32128573     0.02970
C83         C  0.03641225  0.33358535  0.32663194    -0.13170
C84         C  0.02385996  0.31580946  0.30131024     0.00480
C85         C  0.01678794  0.33379682  0.27404598    -0.11700
C86         C  0.03697135  0.35906068  0.26561034     0.02970
C87         C  0.05091197  0.37637669  0.29002166    -0.11120
H88         H  0.03782383  0.32339898  0.35004342     0.08560
H89         H  0.00232470  0.32401971  0.25559497     0.06090
H90         H  0.06400306  0.39813996  0.28498130     0.05940
C91         C  0.04417679  0.22490697  0.17616099     0.02970
C92         C  0.03999481  0.21394638  0.20742080    -0.13170
C93         C  0.05306881  0.23169735  0.23195148     0.00480
C94         C  0.07326267  0.25703874  0.22374690    -0.11700
C95         C  0.06655742  0.27495119  0.19634234     0.02970
C96         C  0.05385510  0.25717629  0.17105509    -0.11120
H97         H  0.02737988  0.19190569  0.21249347     0.08560
H98         H  0.08744418  0.26686955  0.24238497     0.06090
H99         H  0.05202851  0.26757502  0.14776287     0.05940
C100        C  0.05040605  0.36462303  0.17763971     0.02970
C101        C  0.04636397  0.37592432  0.20881995    -0.13170
C102        C  0.05220532  0.35558924  0.23416247     0.00480
C103        C  0.06588824  0.32576436  0.22835640    -0.11700
C104        C  0.06537376  0.31139606  0.19830089     0.02970
C105        C  0.05763274  0.33163297  0.17265101    -0.11120
H106        H  0.03807603  0.40003921  0.21337117     0.08560
H107        H  0.07152481  0.31231985  0.24919122     0.06090
H108        H  0.05742604  0.32220657  0.14891084     0.05940
O109        O  0.45362888  0.49621051  0.99710312    -0.80290
O110        O  0.13362455  0.49154956  0.50069817    -0.81840
O111        O  0.04665009  0.45243382  0.44835200    -0.78860
O112        O  0.04344086  0.45328527  0.05094355    -0.77240
O113        O  0.04394100  0.49178286  0.08944475    -0.79030
O114        O  0.04800135  0.49114325  0.40983402    -0.79970
O115        O  0.09561517  0.45335010  0.50070950    -0.81290
O116        O  0.49061768  0.45625360  0.99621344    -0.81580
Eu117      Eu  0.04401312  0.48017083  0.49919546     2.39200
O118        O  0.07609583  0.01206543  0.03136428    -0.89090
O119        O  0.01380185  0.01407180  0.46714197    -0.92700
C120        C  0.46188558  0.46646867  0.99567418     1.01990
C121        C  0.12474784  0.46198843  0.50102392     1.01810
C122        C  0.04785574  0.46153440  0.41930787     1.01760
C123        C  0.04377936  0.46230083  0.08006433     0.99620
H124        H  0.09102915  0.99893796  0.45462610     0.29360
O125        O  0.07757406  0.01229885  0.46748937    -1.01480
H126        H  0.99758038  0.00025789  0.04372081     0.29400
O127        O  0.01176016  0.01311489  0.03112586    -1.04020
O128        O  0.13531355  0.09756694  0.49832008    -0.81250
O129        O  0.45841321  0.10172289  0.49879378    -0.80780
O130        O  0.10027559  0.04924599  0.41076134    -0.79220
O131        O  0.09610298  0.04232054  0.08956029    -0.82560
O132        O  0.49266000  0.04508237  0.08864792    -0.80420
O133        O  0.49531295  0.04422458  0.40834646    -0.79070
O134        O  0.04825589  0.13636968  0.44681604    -0.80590
O135        O  0.04462487  0.13583365  0.05154106    -0.82510
O136        O  0.04549368  0.09805575  0.40845300    -0.79250
O137        O  0.04224690  0.09706800  0.08994404    -0.81930
O138        O  0.13726855  0.04742711  0.44980743    -0.77660
O139        O  0.45766939  0.04522075  0.44641477    -0.77690
O140        O  0.45592331  0.05143336  0.05087704    -0.77340
O141        O  0.13424645  0.04153700  0.05223268    -0.80830
O142        O  0.09819125  0.13713097  0.49862994    -0.80260
O143        O  0.49758227  0.13940176  0.49971916    -0.78590
Eu144      Eu  0.10912351  0.04466567  0.50022373     2.39770
Eu145      Eu  0.48199598  0.04750663  0.49875826     2.39570
Eu146      Eu  0.04693634  0.04523869  0.43465249     2.38400
Eu147      Eu  0.04457556  0.04470664  0.06340402     2.39880
Eu148      Eu  0.04716987  0.11040038  0.49917855     2.39790
O149        O  0.01447322  0.07841771  0.03103709    -0.93000
O150        O  0.07850275  0.07718747  0.46744274    -0.91890
C151        C  0.12684764  0.12734916  0.49778291     1.02170
C152        C  0.46847466  0.13104447  0.49967338     1.00890
C153        C  0.12898183  0.04958393  0.42072743     1.00280
C154        C  0.12528505  0.04076113  0.08130550     1.02290
C155        C  0.46398365  0.04894897  0.08005314     1.01210
C156        C  0.46622601  0.04397610  0.41723722     1.00060
C157        C  0.04664780  0.12757303  0.41766095     1.00110
C158        C  0.04263160  0.12654683  0.08056171     1.02730
H159        H  0.00224436  0.09241448  0.45331542     0.30100
O160        O  0.01504696  0.07881792  0.46645610    -1.05160
H161        H  0.09105426  0.09088156  0.04576631     0.32150
O162        O  0.07792218  0.07778919  0.03243738    -1.07720
C163        C  0.07227286  0.39188465  0.12904900    -0.02000
C164        C  0.04711012  0.38760035  0.15071801     0.07680
C165        C  0.02043386  0.40784621  0.14846501    -0.02120
C166        C  0.01992246  0.43314934  0.12631776    -0.02120
C167        C  0.04473982  0.43679155  0.10440973     0.07810
C168        C  0.07072920  0.41591820  0.10569939    -0.02310
Br169      Br  0.10573774  0.42211803  0.07710390    -0.00860
Br170      Br  0.11027220  0.36673005  0.13233212    -0.00930
Br171      Br  0.98538376  0.46320719  0.12638655    -0.00890
Br172      Br  0.98360436  0.40021017  0.17439578    -0.00880
C173        C  0.01420324  0.18508300  0.14317253    -0.02000
C174        C  0.04235365  0.20167282  0.14982518     0.07680
C175        C  0.07043405  0.19295117  0.13404277    -0.02120
C176        C  0.07014780  0.16859053  0.11121939    -0.02120
C177        C  0.04221647  0.15181048  0.10484750     0.07810
C178        C  0.01432566  0.15958804  0.12132303    -0.02310
Br179      Br  0.47637103  0.13530947  0.11413639    -0.00860
Br180      Br  0.47542405  0.19773317  0.16341696    -0.00930
Br181      Br  0.10858780  0.15677788  0.08984807    -0.00890
Br182      Br  0.11011702  0.21239368  0.14530954    -0.00880
C183        C  0.07435813  0.39266539  0.36630866    -0.02000
C184        C  0.04765078  0.38889724  0.34732795     0.07680
C185        C  0.02075985  0.40777427  0.35299294    -0.02120
C186        C  0.02080669  0.43074705  0.37712103    -0.02120
C187        C  0.04798309  0.43601759  0.39503519     0.07810
C188        C  0.07444137  0.41610972  0.39029771    -0.02310
Br189      Br  0.11040235  0.42025300  0.41698592    -0.00860
Br190      Br  0.11062106  0.36592221  0.35913676    -0.00930
Br191      Br  0.48259875  0.45268581  0.38769559    -0.00890
Br192      Br  0.48347633  0.40192479  0.32779657    -0.00880
C193        C  0.02289065  0.20332637  0.37294945    -0.02000
C194        C  0.04385980  0.20292645  0.34674246     0.07680
C195        C  0.06647677  0.17800108  0.34504276    -0.02120
C196        C  0.06469687  0.15168945  0.36583483    -0.02120
C197        C  0.04561787  0.15335388  0.39319858     0.07810
C198        C  0.02554417  0.18014250  0.39709979    -0.02310
Br199      Br  0.99931190  0.18426716  0.43426249    -0.00860
Br200      Br  0.98816719  0.23322872  0.37531222    -0.00930
Br201      Br  0.08704102  0.11299767  0.35471070    -0.00890
Br202      Br  0.10220978  0.18067471  0.31660236    -0.00880
C203        C  0.40661390  0.04451953  0.09822264    -0.02000
C204        C  0.43882792  0.05006435  0.10543686     0.07680
C205        C  0.44690941  0.05328898  0.13785507    -0.02120
C206        C  0.42361371  0.05137711  0.16159486    -0.02120
C207        C  0.39112692  0.05297817  0.15396311     0.07810
C208        C  0.38341816  0.04436491  0.12236471    -0.02310
Br209      Br  0.34445948  0.02215819  0.11254745    -0.00860
Br210      Br  0.39280652  0.03482312  0.05566267    -0.00930
Br211      Br  0.43771880  0.03427307  0.20170982    -0.00890
Br212      Br  0.48970790  0.06037523  0.15218182    -0.00880
C213        C  0.14162370  0.03819629  0.13940992    -0.02000
C214        C  0.15008307  0.03910160  0.10683296     0.07680
C215        C  0.18266714  0.04200719  0.09935516    -0.02120
C216        C  0.20517745  0.04625126  0.12315583    -0.02120
C217        C  0.19736872  0.04073871  0.15535436     0.07810
C218        C  0.16468702  0.04160456  0.16303246    -0.02310
Br219      Br  0.14963633  0.05849129  0.20301433    -0.00860
Br220      Br  0.09876998  0.03077494  0.15387849    -0.00930
Br221      Br  0.24214451  0.07091050  0.11075052    -0.00890
Br222      Br  0.19926202  0.03919874  0.05694140    -0.00880
C223        C  0.18695671  0.08291207  0.36031828    -0.02000
C224        C  0.20081105  0.05442159  0.34928019     0.07680
C225        C  0.19242157  0.02472915  0.36301850    -0.02120
C226        C  0.16964828  0.02350116  0.38708348    -0.02120
C227        C  0.15447341  0.05166217  0.39699860     0.07810
C228        C  0.16441036  0.08155045  0.38481999    -0.02310
Br229      Br  0.15004885  0.12045831  0.40424335    -0.00860
Br230      Br  0.19911495  0.12349621  0.34205792    -0.00930
Br231      Br  0.16085441  0.48358554  0.40811234    -0.00890
Br232      Br  0.21185729  0.48544580  0.34857311    -0.00880
C233        C  0.40902853  0.05001576  0.39979154    -0.02000
C234        C  0.44081064  0.04159995  0.39258411     0.07680
C235        C  0.44731449  0.02966626  0.36168130    -0.02120
C236        C  0.42246818  0.02303967  0.34076134    -0.02120
C237        C  0.39222840  0.03572065  0.34645739     0.07580
C238        C  0.38640337  0.05093910  0.37575781    -0.02310
Br239      Br  0.34909572  0.07672851  0.38289049    -0.00860
Br240      Br  0.39384875  0.05912477  0.44212689    -0.00930
Br241      Br  0.42976898  0.49424703  0.30577625    -0.00890
Br242      Br  0.48955349  0.52347645  0.34549234    -0.00880
C243        C  0.20256409  0.42248566  0.02093537    -0.02000
C244        C  0.19763916  0.38981114  0.51404968     0.07680
C245        C  0.16798987  0.38081937  0.50132790    -0.02120
C246        C  0.14317645  0.40325922  0.50014905    -0.02120
C247        C  0.14982323  0.43661960  0.50320881     0.07810
C248        C  0.18130568  0.44545276  0.00997263    -0.02310
Br249      Br  0.19939864  0.48582823  0.99684609    -0.00860
Br250      Br  0.23652339  0.43684825  0.04747047    -0.00930
Br251      Br  0.10121284  0.38657192  0.49317362    -0.00890
Br252      Br  0.16129657  0.33973969  0.48097727    -0.00880
C253        C  0.15109784  0.17713327  0.47388631    -0.02000
C254        C  0.15192569  0.15200334  0.49641121     0.07680
C255        C  0.17696515  0.15049655  0.01794570    -0.02120
C256        C  0.20141035  0.17312062  0.01647518    -0.02120
C257        C  0.20150714  0.19711914  0.49287484     0.07810
C258        C  0.17638770  0.19892106  0.47146481    -0.02310
Br259      Br  0.17698541  0.23078211  0.43833033    -0.00860
Br260      Br  0.11515319  0.18291573  0.44685335    -0.00930
Br261      Br  0.23332877  0.17248768  0.04881594    -0.00890
Br262      Br  0.17618959  0.11973816  0.05199247    -0.00880
C263        C  0.41891908  0.20075517  0.02874944    -0.02000
C264        C  0.39434721  0.20021542  0.50674544     0.07680
C265        C  0.39610987  0.17938873  0.48049075    -0.02120
C266        C  0.42133427  0.15793739  0.47745600    -0.02120
C267        C  0.44471927  0.15684680  0.50065482     0.07810
C268        C  0.44476116  0.18010896  0.02487163    -0.02310
Br269      Br  0.48124412  0.18651791  0.05060917    -0.00860
Br270      Br  0.41684778  0.22928894  0.06453315    -0.00930
Br271      Br  0.42691358  0.13404819  0.43892393    -0.00890
Br272      Br  0.36525091  0.18149358  0.44728168    -0.00880
C273        C  0.41680815  0.44138368  0.46652033    -0.02000
C274        C  0.43647589  0.44221915  0.99321121     0.07680
C275        C  0.43168027  0.41978545  0.01763328    -0.02120
C276        C  0.40794217  0.39634458  0.01502310    -0.02120
C277        C  0.38980539  0.39424411  0.98725332     0.07810
C278        C  0.39432228  0.41683282  0.46304362    -0.02310
Br279      Br  0.37042591  0.41338437  0.42467760    -0.00860
Br280      Br  0.41985726  0.47402523  0.43479148    -0.00930
Br281      Br  0.39925359  0.36824038  0.05033935    -0.00890
Br282      Br  0.45638135  0.42244256  0.05550212    -0.00880
C283        C  0.36542528  0.36900382  0.98464582     0.02970
C284        C  0.37460382  0.33610083  0.98385553    -0.13170
C285        C  0.35270641  0.31291035  0.99358129     0.00480
C286        C  0.32499953  0.32436885  0.50664758    -0.11700
C287        C  0.31151380  0.35270417  0.49604734     0.02970
C288        C  0.33277054  0.37696729  0.48699559    -0.11120
H289        H  0.39837204  0.32920757  0.97760514     0.08560
H290        H  0.31112044  0.30843137  0.52016465     0.06090
H291        H  0.32465930  0.40128879  0.48332067     0.05940
C292        C  0.36937297  0.22467881  0.00766719     0.02970
C293        C  0.37712736  0.25717650  0.00114649    -0.13170
C294        C  0.35388137  0.27722948  0.98899845     0.00480
C295        C  0.32553162  0.26249078  0.48021216    -0.11700
C296        C  0.31449330  0.23571873  0.49686851     0.02970
C297        C  0.33726564  0.21540759  0.00978452    -0.11120
H298        H  0.40077091  0.26620332  0.00440422     0.08560
H299        H  0.30986434  0.27527443  0.46527808     0.06090
H300        H  0.33053702  0.19233265  0.01953642     0.05940
C301        C  0.22574281  0.22258009  0.49408212     0.02970
C302        C  0.25813086  0.21478730  0.49169255    -0.13170
C303        C  0.28026226  0.23528914  0.50548348     0.00480
C304        C  0.26855789  0.26162716  0.52248660    -0.11700
C305        C  0.23939397  0.27513026  0.51458316     0.02970
C306        C  0.21690248  0.25432359  0.50207583    -0.11120
H307        H  0.26563345  0.19246573  0.48099272     0.08560
H308        H  0.28373177  0.27419281  0.53830015     0.06090
H309        H  0.19293571  0.26246751  0.49919500     0.05940
C310        C  0.22449686  0.36656316  0.51496672     0.02970
C311        C  0.25533543  0.37582664  0.50448130    -0.13170
C312        C  0.27607037  0.35206293  0.49406329     0.00480
C313        C  0.26249237  0.32210040  0.48822149    -0.11700
C314        C  0.23902788  0.31051788  0.50821402     0.02970
C315        C  0.21920913  0.33347570  0.52209279    -0.11120
H316        H  0.26263405  0.40053652  0.00229224     0.08560
H317        H  0.27449370  0.30559633  0.47343974     0.06090
H318        H  0.19869892  0.32581543  0.53540029     0.05940
C319        C  0.36788602  0.03666600  0.82107376     0.02970
C320        C  0.33548170  0.03108993  0.82826477    -0.13170
C321        C  0.31250336  0.04539285  0.80922993     0.00480
C322        C  0.32332572  0.06462508  0.78445611    -0.11700
C323        C  0.35223458  0.05790401  0.76996368     0.02970
C324        C  0.37593466  0.04663734  0.78981440    -0.11120
H325        H  0.32851061  0.01828046  0.84943835     0.08560
H326        H  0.30723474  0.08000184  0.77282225     0.06090
H327        H  0.39994083  0.04695874  0.78133493     0.05940
C328        C  0.22484439  0.05464252  0.82406442     0.02970
C329        C  0.25702535  0.05160263  0.83202169    -0.13170
C330        C  0.27789531  0.03822215  0.80999000     0.00480
C331        C  0.26465477  0.02590978  0.78229389    -0.11700
C332        C  0.23686939  0.03905737  0.77020869     0.02970
C333        C  0.21566343  0.05213217  0.79210633    -0.11120
H334        H  0.26525632  0.05838800  0.85518422     0.08560
H335        H  0.27769878  0.00933819  0.76820751     0.06090
H336        H  0.19235524  0.05926544  0.78479072     0.05940
C337        C  0.22279521  0.03798533  0.68047571     0.02970
C338        C  0.21581686  0.03367815  0.71323553    -0.13170
C339        C  0.23658037  0.04647836  0.73555792     0.00480
C340        C  0.26266508  0.06281007  0.72348952    -0.11700
C341        C  0.27636054  0.05227715  0.69528853     0.02970
C342        C  0.25565933  0.03913883  0.67311328    -0.11120
H343        H  0.19532301  0.02056511  0.72117997     0.08560
H344        H  0.27575730  0.07796872  0.73857303     0.06090
H345        H  0.26493395  0.02969206  0.65126656     0.05940
C346        C  0.36593503  0.05907996  0.67923425     0.02970
C347        C  0.37317587  0.06372461  0.71191588    -0.13170
C348        C  0.35151835  0.05292267  0.73478862     0.00480
C349        C  0.32465588  0.03817608  0.72322173    -0.11700
C350        C  0.31157597  0.04882152  0.69519215     0.02970
C351        C  0.33303172  0.05980722  0.67221964    -0.11120
H352        H  0.39459343  0.07524364  0.71937563     0.08560
H353        H  0.31081126  0.02428170  0.73873950     0.06090
H354        H  0.32443170  0.06839485  0.64985493     0.05940
C355        C  0.03991702  0.22588433  0.81964959     0.02970
C356        C  0.03436593  0.25925235  0.82448093    -0.13170
C357        C  0.02541750  0.27941409  0.79917432     0.00480
C358        C  0.02409950  0.26511963  0.76912886    -0.11700
C359        C  0.03716046  0.23509479  0.76311963     0.02970
C360        C  0.04206439  0.21435313  0.78830204    -0.11120
H361        H  0.03687967  0.26912106  0.84786727     0.08560
H362        H  0.01849886  0.27870153  0.74836937     0.06090
H363        H  0.04830737  0.18973871  0.78327349     0.05940
C364        C  0.04671773  0.36549950  0.82128644     0.02970
C365        C  0.03641341  0.33357599  0.82663275    -0.13170
C366        C  0.02386048  0.31580038  0.80131098     0.00480
C367        C  0.01678948  0.33378787  0.77404668    -0.11700
C368        C  0.03697404  0.35905059  0.76561108     0.02970
C369        C  0.05091523  0.37636636  0.79002228    -0.11120
H370        H  0.03782400  0.32338989  0.85004440     0.08560
H371        H  0.00232555  0.32401188  0.75559570     0.06090
H372        H  0.06400705  0.39812912  0.78498172     0.05940
C373        C  0.04416889  0.22489837  0.67616031     0.02970
C374        C  0.03998359  0.21393788  0.70741967    -0.13170
C375        C  0.05305951  0.23168646  0.73195133     0.00480
C376        C  0.07325595  0.25702630  0.72374795    -0.11700
C377        C  0.06655432  0.27493960  0.69634289     0.02970
C378        C  0.05385244  0.25716594  0.67105474    -0.11120
H379        H  0.02736458  0.19189923  0.71249089     0.08560
H380        H  0.08743749  0.26685541  0.74238682     0.06090
H381        H  0.05202949  0.26756449  0.64776214     0.05940
C382        C  0.05040559  0.36461215  0.67764035     0.02970
C383        C  0.04636451  0.37591332  0.70882062    -0.13170
C384        C  0.05220719  0.35557856  0.73416298     0.00480
C385        C  0.06588922  0.32575323  0.72835658    -0.11700
C386        C  0.06537321  0.31138474  0.69830116     0.02970
C387        C  0.05763227  0.33162206  0.67265130    -0.11120
H388        H  0.03807607  0.40002802  0.71337199     0.08560
H389        H  0.07152629  0.31230875  0.74919127     0.06090
H390        H  0.05742495  0.32219589  0.64891106     0.05940
O391        O  0.45363408  0.49620723  0.49710410    -0.80290
O392        O  0.13362263  0.49155187  0.00068732    -0.81840
O393        O  0.04664775  0.45243418  0.94834633    -0.78860
O394        O  0.04344225  0.45328323  0.55095114    -0.77240
O395        O  0.04393303  0.49178047  0.58945298    -0.79030
O396        O  0.04800030  0.49114250  0.90982746    -0.79970
O397        O  0.09561353  0.45335208  0.00070112    -0.81290
O398        O  0.49062123  0.45624897  0.49622152    -0.81580
Eu399      Eu  0.04401111  0.48017345  0.99918836     2.39200
O400        O  0.07609681  0.01206562  0.53135674    -0.89090
O401        O  0.01380548  0.01406534  0.96714280    -0.92700
C402        C  0.46188963  0.46646490  0.49567913     1.01990
C403        C  0.12474630  0.46199057  0.00101381     1.01810
C404        C  0.04785452  0.46153358  0.91930199     1.01760
C405        C  0.04377612  0.46229830  0.58007220     0.99620
H406        H  0.09103128  0.99893655  0.95463421     0.29360
O407        O  0.07757603  0.01229759  0.96749715    -1.01480
H408        H  0.99758091  0.00025910  0.54371589     0.29400
O409        O  0.01175913  0.01311741  0.53112049    -1.04020
O410        O  0.13531740  0.09756290  0.99832966    -0.81250
O411        O  0.45841535  0.10171555  0.99880124    -0.80780
O412        O  0.10027722  0.04923914  0.91076689    -0.79220
O413        O  0.09610848  0.04233212  0.58955054    -0.82560
O414        O  0.49266595  0.04505599  0.58864461    -0.80420
O415        O  0.49531496  0.04423007  0.90835108    -0.79070
O416        O  0.04825847  0.13636915  0.94682374    -0.80590
O417        O  0.04461510  0.13583593  0.55153129    -0.82510
O418        O  0.04549725  0.09805449  0.90846123    -0.79250
O419        O  0.04223711  0.09707000  0.58993398    -0.81930
O420        O  0.13727037  0.04741883  0.94981279    -0.77660
O421        O  0.45767161  0.04522832  0.94641809    -0.77690
O422        O  0.45591624  0.05144059  0.55088702    -0.77340
O423        O  0.13425050  0.04154717  0.55222095    -0.80830
O424        O  0.09819560  0.13712756  0.99863820    -0.80260
O425        O  0.49758138  0.13939778  0.99973265    -0.78590
Eu426      Eu  0.10912542  0.04466319  0.00023202     2.39770
Eu427      Eu  0.48200318  0.04750252  0.99875716     2.39570
Eu428      Eu  0.04693941  0.04523774  0.93465888     2.38400
Eu429      Eu  0.04457800  0.04470752  0.56339640     2.39880
Eu430      Eu  0.04717286  0.11039983  0.99918671     2.39790
O431        O  0.01447200  0.07842031  0.53103394    -0.93000
O432        O  0.07850541  0.07718581  0.96745102    -0.91890
C433        C  0.12685183  0.12734513  0.99779180     1.02170
C434        C  0.46847416  0.13103772  0.99968535     1.00890
C435        C  0.12898348  0.04957439  0.92073234     1.00280
C436        C  0.12529061  0.04077534  0.58129421     1.02290
C437        C  0.46398812  0.04893494  0.58006035     1.01210
C438        C  0.46622748  0.04398627  0.91724081     1.00060
C439        C  0.04665072  0.12757177  0.91766871     1.00110
C440        C  0.04261929  0.12654885  0.58055156     1.02730
H441        H  0.00224925  0.09241541  0.95332079     0.30100
O442        O  0.01505229  0.07881857  0.96646073    -1.05160
H443        H  0.09105263  0.09088527  0.54575725     0.32150
O444        O  0.07792108  0.07779175  0.53242888    -1.07720
C445        C  0.07227215  0.39187902  0.62905244    -0.02000
C446        C  0.04710855  0.38759035  0.65071943     0.07680
C447        C  0.02043110  0.40783460  0.64846720    -0.02120
C448        C  0.01991897  0.43314025  0.62632257    -0.02120
C449        C  0.04473776  0.43678776  0.60441695     0.07810
C450        C  0.07072894  0.41591646  0.60570650    -0.02310
Br451      Br  0.10574071  0.42212476  0.57711683    -0.00860
Br452      Br  0.11027140  0.36672402  0.63233331    -0.00930
Br453      Br  0.98537727  0.46319414  0.62639187    -0.00890
Br454      Br  0.98360137  0.40019286  0.67439603    -0.00880
C455        C  0.01418949  0.18509356  0.64315479    -0.02000
C456        C  0.04234585  0.20166528  0.64982407     0.07680
C457        C  0.07042886  0.19293060  0.63405405    -0.02120
C458        C  0.07014085  0.16857290  0.61122798    -0.02120
C459        C  0.04220306  0.15181191  0.60483755     0.07810
C460        C  0.01430710  0.15960598  0.62129678    -0.02310
Br461      Br  0.47633873  0.13536266  0.61407590    -0.00860
Br462      Br  0.47541288  0.19775581  0.66339410    -0.00930
Br463      Br  0.10858484  0.15674097  0.58987483    -0.00890
Br464      Br  0.11011544  0.21235306  0.64534049    -0.00880
C465        C  0.07436289  0.39266589  0.86630242    -0.02000
C466        C  0.04765226  0.38888854  0.84732811     0.07680
C467        C  0.02075735  0.40775800  0.85299845    -0.02120
C468        C  0.02080309  0.43073183  0.87712576    -0.02120
C469        C  0.04798330  0.43601462  0.89503069     0.07810
C470        C  0.07444560  0.41611317  0.89028889    -0.02310
Br471      Br  0.11040957  0.42026540  0.91697124    -0.00860
Br472      Br  0.11063005  0.36592969  0.85912662    -0.00930
Br473      Br  0.48258800  0.45265077  0.88771726    -0.00890
Br474      Br  0.48346821  0.40189740  0.82781119    -0.00880
C475        C  0.02289085  0.20332109  0.87295297    -0.02000
C476        C  0.04385781  0.20291844  0.84674416     0.07680
C477        C  0.06647404  0.17799250  0.84504446    -0.02120
C478        C  0.06469563  0.15168311  0.86583916    -0.02120
C479        C  0.04561995  0.15335108  0.89320512     0.07810
C480        C  0.02554655  0.18013996  0.89710556    -0.02310
Br481      Br  0.99931658  0.18426766  0.93426983    -0.00860
Br482      Br  0.98816697  0.23322296  0.87531508    -0.00930
Br483      Br  0.08703589  0.11298902  0.85471442    -0.00890
Br484      Br  0.10220419  0.18066207  0.81660012    -0.00880
C485        C  0.40664297  0.04441573  0.59827385    -0.02000
C486        C  0.43884701  0.05004826  0.60545745     0.07680
C487        C  0.44694029  0.05336009  0.63786386    -0.02120
C488        C  0.42365621  0.05148251  0.66161949    -0.02120
C489        C  0.39116337  0.05302383  0.65399567     0.07810
C490        C  0.38345487  0.04430513  0.62242454    -0.02310
Br491      Br  0.34451440  0.02202681  0.61269102    -0.00860
Br492      Br  0.39286334  0.03449873  0.55575552    -0.00930
Br493      Br  0.43780218  0.03449992  0.70176859    -0.00890
Br494      Br  0.48974437  0.06050330  0.65214858    -0.00880
C495        C  0.14163533  0.03822177  0.63939733    -0.02000
C496        C  0.15009110  0.03912767  0.60681966     0.07680
C497        C  0.18267284  0.04204965  0.59933854    -0.02120
C498        C  0.20518110  0.04632159  0.62313529    -0.02120
C499        C  0.19738155  0.04080546  0.65533429     0.07810
C500        C  0.16469979  0.04164465  0.66301732    -0.02310
Br501      Br  0.14964303  0.05850793  0.70300669    -0.00860
Br502      Br  0.09878674  0.03077486  0.65386830    -0.00930
Br503      Br  0.24211403  0.07102957  0.61072485    -0.00890
Br504      Br  0.19927040  0.03921991  0.55692786    -0.00880
C505        C  0.18694338  0.08289637  0.86030583    -0.02000
C506        C  0.20079617  0.05440544  0.84926678     0.07680
C507        C  0.19241130  0.02471414  0.86301061    -0.02120
C508        C  0.16964495  0.02348791  0.88708297    -0.02120
C509        C  0.15447335  0.05164995  0.89700091     0.07810
C510        C  0.16440514  0.08153688  0.88481512    -0.02310
Br511      Br  0.15004904  0.12044664  0.90423915    -0.00860
Br512      Br  0.19909313  0.12347893  0.84203638    -0.00930
Br513      Br  0.16085381  0.48359769  0.90810778    -0.00890
Br514      Br  0.21187012  0.48546126  0.84858267    -0.00880
C515        C  0.40902644  0.05002716  0.89980317    -0.02000
C516        C  0.44081013  0.04162126  0.89258780     0.07680
C517        C  0.44731427  0.02971179  0.86167583    -0.02120
C518        C  0.42246874  0.02310352  0.84074928    -0.02120
C519        C  0.39222692  0.03577370  0.84645755     0.07580
C520        C  0.38639847  0.05096249  0.87577193    -0.02310
Br521      Br  0.34907729  0.07672486  0.88293002    -0.00860
Br522      Br  0.39384868  0.05911021  0.94214546    -0.00930
Br523      Br  0.42976490  0.49415157  0.80581579    -0.00890
Br524      Br  0.48955367  0.52342543  0.84550010    -0.00880
C525        C  0.20256528  0.42248374  0.52094438    -0.02000
C526        C  0.19763837  0.38981302  0.01404025     0.07680
C527        C  0.16798992  0.38082153  0.00131631    -0.02120
C528        C  0.14317645  0.40326151  0.00013553    -0.02120
C529        C  0.14982235  0.43662185  0.00319789     0.07810
C530        C  0.18130696  0.44545052  0.50998131    -0.02310
Br531      Br  0.19940072  0.48582347  0.49684829    -0.00860
Br532      Br  0.23652537  0.43684675  0.54747821    -0.00930
Br533      Br  0.10121380  0.38657487  0.99315336    -0.00890
Br534      Br  0.16129816  0.33974114  0.98096660    -0.00880
C535        C  0.15110104  0.17712760  0.97389260    -0.02000
C536        C  0.15192985  0.15199890  0.99641880     0.07680
C537        C  0.17696053  0.15049976  0.51793842    -0.02120
C538        C  0.20140752  0.17312175  0.51646814    -0.02120
C539        C  0.20150828  0.19711761  0.99288142     0.07810
C540        C  0.17638919  0.19891720  0.97147099    -0.02310
Br541      Br  0.17698504  0.23077770  0.93833591    -0.00860
Br542      Br  0.11515806  0.18290466  0.94685632    -0.00930
Br543      Br  0.23332596  0.17248547  0.54880891    -0.00890
Br544      Br  0.17618039  0.11974436  0.55198701    -0.00880
C545        C  0.41892737  0.20076628  0.52873627    -0.02000
C546        C  0.39434655  0.20021152  0.00675008     0.07680
C547        C  0.39611341  0.17938649  0.98049452    -0.02120
C548        C  0.42133636  0.15793258  0.97746410    -0.02120
C549        C  0.44471578  0.15683732  0.00066870     0.07810
C550        C  0.44477242  0.18012570  0.52485091    -0.02310
Br551      Br  0.48127218  0.18656066  0.55055934    -0.00860
Br552      Br  0.41686340  0.22930196  0.56451888    -0.00930
Br553      Br  0.42691745  0.13404010  0.93893398    -0.00890
Br554      Br  0.36526118  0.18149636  0.94727955    -0.00880
C555        C  0.41680428  0.44138463  0.96651655    -0.02000
C556        C  0.43647916  0.44221634  0.49321549     0.07680
C557        C  0.43168223  0.41978186  0.51763674    -0.02120
C558        C  0.40794245  0.39634284  0.51502585    -0.02120
C559        C  0.38980500  0.39424510  0.48725632     0.07810
C560        C  0.39432098  0.41683136  0.96303998    -0.02310
Br561      Br  0.37042539  0.41337941  0.92467368    -0.00860
Br562      Br  0.41984601  0.47402868  0.93479013    -0.00930
Br563      Br  0.39925296  0.36823697  0.55034070    -0.00890
Br564      Br  0.45638482  0.42243419  0.55550485    -0.00880
C565        C  0.36542508  0.86900334  0.48464638     0.02970
C566        C  0.37460365  0.83610036  0.48385675    -0.13170
C567        C  0.35270614  0.81291003  0.49358249     0.00480
C568        C  0.32499987  0.82436876  0.00664722    -0.11700
C569        C  0.31151386  0.85270421  0.99604764     0.02970
C570        C  0.33277039  0.87696747  0.98699580    -0.11120
H571        H  0.39837198  0.82920702  0.47760687     0.08560
H572        H  0.31112114  0.80843108  0.02016443     0.06090
H573        H  0.32465908  0.90128903  0.98332145     0.05940
C574        C  0.36937302  0.72467850  0.50766873     0.02970
C575        C  0.37712726  0.75717629  0.50114837    -0.13170
C576        C  0.35388129  0.77722914  0.48900007     0.00480
C577        C  0.32553142  0.76249093  0.98021125    -0.11700
C578        C  0.31449333  0.73571907  0.99686806     0.02970
C579        C  0.33726570  0.71540705  0.50978566    -0.11120
H580        H  0.40077072  0.76620325  0.50440637     0.08560
H581        H  0.30986391  0.77527454  0.96527734     0.06090
H582        H  0.33053710  0.69233199  0.51953728     0.05940
C583        C  0.22574274  0.72258065  0.99408338     0.02970
C584        C  0.25813074  0.71478796  0.99169298    -0.13170
C585        C  0.28026243  0.73528957  0.00548373     0.00480
C586        C  0.26855838  0.76162736  0.02248750    -0.11700
C587        C  0.23939420  0.77513053  0.01458495     0.02970
C588        C  0.21690248  0.75432396  0.00207787    -0.11120
H589        H  0.26563313  0.69246660  0.98099260     0.08560
H590        H  0.28373261  0.77419286  0.03830085     0.06090
H591        H  0.19293563  0.76246786  0.99919767     0.05940
C592        C  0.22449694  0.86656357  0.01496763     0.02970
C593        C  0.25533554  0.87582688  0.00448211    -0.13170
C594        C  0.27607040  0.85206298  0.99406435     0.00480
C595        C  0.26249232  0.82210046  0.98822291    -0.11700
C596        C  0.23902803  0.81051816  0.00821573     0.02970
C597        C  0.21920922  0.83347617  0.02209418    -0.11120
H598        H  0.26263351  0.90053611  0.50229137     0.08560
H599        H  0.27449353  0.80559621  0.97344128     0.06090
H600        H  0.19869897  0.82581606  0.03540171     0.05940
C601        C  0.36788616  0.53665934  0.32107499     0.02970
C602        C  0.33548165  0.53108492  0.32826659    -0.13170
C603        C  0.31250376  0.54538749  0.30923092     0.00480
C604        C  0.32332671  0.56461749  0.28445581    -0.11700
C605        C  0.35223511  0.55789450  0.26996366     0.02970
C606        C  0.37593492  0.54662807  0.28981483    -0.11120
H607        H  0.32851020  0.51827735  0.34944115     0.08560
H608        H  0.30723646  0.57999448  0.27282144     0.06090
H609        H  0.39994103  0.54694816  0.28133516     0.05940
C610        C  0.22484548  0.55464255  0.32406608     0.02970
C611        C  0.25702629  0.55160061  0.33202327    -0.13170
C612        C  0.27789534  0.53821886  0.30999148     0.00480
C613        C  0.26465399  0.52590762  0.28229531    -0.11700
C614        C  0.23686943  0.53905698  0.27021023     0.02970
C615        C  0.21566430  0.55213303  0.29210796    -0.11120
H616        H  0.26525772  0.55838520  0.35518586     0.08560
H617        H  0.27769725  0.50933585  0.26820857     0.06090
H618        H  0.19235644  0.55926756  0.28479248     0.05940
C619        C  0.22279443  0.53798228  0.18047749     0.02970
C620        C  0.21581597  0.53367714  0.21323754    -0.13170
C621        C  0.23658039  0.54647704  0.23555927     0.00480
C622        C  0.26266617  0.56280638  0.22349003    -0.11700
C623        C  0.27636070  0.55227143  0.19528940     0.02970
C624        C  0.25565859  0.53913322  0.17311494    -0.11120
H625        H  0.19532162  0.52056541  0.22118271     0.08560
H626        H  0.27575918  0.57796543  0.23857242     0.06090
H627        H  0.26493247  0.52968508  0.15126846     0.05940
C628        C  0.36593469  0.55907389  0.17923453     0.02970
C629        C  0.37317594  0.56371651  0.21191627    -0.13170
C630        C  0.35151882  0.55291315  0.23478868     0.00480
C631        C  0.32465600  0.53816717  0.22322149    -0.11700
C632        C  0.31157590  0.54881417  0.19519248     0.02970
C633        C  0.33303134  0.55980150  0.17222048    -0.11120
H634        H  0.39459354  0.57523530  0.21937635     0.08560
H635        H  0.31081139  0.52427210  0.23873883     0.06090
H636        H  0.32443094  0.56839134  0.14985676     0.05940
C637        C  0.03991747  0.72588417  0.31964976     0.02970
C638        C  0.03436628  0.75925220  0.32448104    -0.13170
C639        C  0.02541777  0.77941388  0.29917438     0.00480
C640        C  0.02409970  0.76511936  0.26912898    -0.11700
C641        C  0.03716089  0.73509464  0.26311976     0.02970
C642        C  0.04206495  0.71435299  0.28830219    -0.11120
H643        H  0.03688004  0.76912095  0.34786735     0.08560
H644        H  0.01849890  0.77870117  0.24836949     0.06090
H645        H  0.04830804  0.68973860  0.28327362     0.05940
C646        C  0.04671789  0.86549934  0.32128636     0.02970
C647        C  0.03641365  0.83357582  0.32663266    -0.13170
C648        C  0.02386078  0.81580018  0.30131091     0.00480
C649        C  0.01678980  0.83378765  0.27404656    -0.11700
C650        C  0.03697420  0.85905053  0.26561100     0.02970
C651        C  0.05091534  0.87636629  0.29002223    -0.11120
H652        H  0.03782421  0.82338975  0.35004433     0.08560
H653        H  0.00232592  0.82401164  0.25559555     0.06090
H654        H  0.06400706  0.89812911  0.28498171     0.05940
C655        C  0.04416913  0.72489853  0.17616042     0.02970
C656        C  0.03998397  0.71393795  0.20741976    -0.13170
C657        C  0.05305991  0.73168649  0.23195142     0.00480
C658        C  0.07325617  0.75702650  0.22374804    -0.11700
C659        C  0.06655450  0.77493978  0.19634295     0.02970
C660        C  0.05385259  0.75716612  0.17105485    -0.11120
H661        H  0.02736508  0.69189923  0.21249096     0.08560
H662        H  0.08743770  0.76685562  0.24238691     0.06090
H663        H  0.05202957  0.76756466  0.14776225     0.05940
C664        C  0.05040579  0.86461236  0.17764022     0.02970
C665        C  0.04636463  0.87591347  0.20882053    -0.13170
C666        C  0.05220737  0.85557870  0.23416288     0.00480
C667        C  0.06588956  0.82575347  0.22835648    -0.11700
C668        C  0.06537348  0.81138494  0.19830109     0.02970
C669        C  0.05763251  0.83162226  0.17265121    -0.11120
H670        H  0.03807612  0.90002814  0.21337193     0.08560
H671        H  0.07152673  0.81230903  0.24919116     0.06090
H672        H  0.05742519  0.82219606  0.14891098     0.05940
O673        O  0.45363241  0.99620895  0.99709505    -0.80290
O674        O  0.13362202  0.99155150  0.50068708    -0.81840
O675        O  0.04664567  0.95243448  0.44834899    -0.78860
O676        O  0.04343819  0.95328581  0.05095198    -0.77240
O677        O  0.04392906  0.99177929  0.08945032    -0.79030
O678        O  0.04799964  0.99114204  0.40982746    -0.79970
O679        O  0.09560924  0.95335304  0.50070220    -0.81290
O680        O  0.49061681  0.95624471  0.99621952    -0.81580
Eu681      Eu  0.04398296  0.98017614  0.49920553     2.39200
O682        O  0.07610430  0.51206524  0.03135745    -0.89090
O683        O  0.01380218  0.51406254  0.46714311    -0.92700
C684        C  0.46188702  0.96646379  0.99567514     1.01990
C685        C  0.12474459  0.96199032  0.50101353     1.01810
C686        C  0.04785414  0.96153321  0.41930288     1.01760
C687        C  0.04377288  0.96229945  0.08007071     0.99620
H688        H  0.09103446  0.49893572  0.45463202     0.29360
O689        O  0.07758082  0.51229882  0.46749365    -1.01480
H690        H  0.99819884  0.50001219  0.04395507     0.29400
O691        O  0.01198191  0.51314207  0.03109591    -1.04020
O692        O  0.13531756  0.59756269  0.49833027    -0.81250
O693        O  0.45841673  0.60171526  0.49880124    -0.80780
O694        O  0.10027752  0.54923922  0.41076772    -0.79220
O695        O  0.09611249  0.54233316  0.08955234    -0.82560
O696        O  0.49267002  0.54505532  0.08864075    -0.80420
O697        O  0.49531561  0.54423004  0.40835112    -0.79070
O698        O  0.04825877  0.63636901  0.44682428    -0.80590
O699        O  0.04461569  0.63583622  0.05153151    -0.82510
O700        O  0.04549763  0.59805441  0.40846174    -0.79250
O701        O  0.04223865  0.59707270  0.08993470    -0.81930
O702        O  0.13727073  0.54741890  0.44981371    -0.77660
O703        O  0.45767293  0.54522815  0.44641893    -0.77690
O704        O  0.45591686  0.55143386  0.05088838    -0.77340
O705        O  0.13425091  0.54154702  0.05222162    -0.80830
O706        O  0.09819560  0.63712733  0.49863870    -0.80260
O707        O  0.49758207  0.63939831  0.49973325    -0.78590
Eu708      Eu  0.10912625  0.54466306  0.50023265     2.39770
Eu709      Eu  0.48199967  0.54748556  0.49877429     2.39570
Eu710      Eu  0.04693857  0.54523789  0.43465986     2.38400
Eu711      Eu  0.04460707  0.54472539  0.06339967     2.39880
Eu712      Eu  0.04717189  0.61039926  0.49918703     2.39790
O713        O  0.01446897  0.57842084  0.03103691    -0.93000
O714        O  0.07850540  0.57718551  0.46745178    -0.91890
C715        C  0.12685191  0.62734490  0.49779232     1.02170
C716        C  0.46847504  0.63103815  0.49968543     1.00890
C717        C  0.12898385  0.54957452  0.42073325     1.00280
C718        C  0.12529196  0.54077476  0.08129496     1.02290
C719        C  0.46399017  0.54893190  0.08005931     1.01210
C720        C  0.46622831  0.54398631  0.41724102     1.00060
C721        C  0.04665114  0.62757168  0.41766922     1.00110
C722        C  0.04261958  0.62654987  0.08055177     1.02730
H723        H  0.00224762  0.59241577  0.45332089     0.30100
O724        O  0.01504695  0.57881684  0.46646302    -1.05160
H725        H  0.09105588  0.59088833  0.04575846     0.32150
O726        O  0.07792613  0.57779622  0.03242789    -1.07720
C727        C  0.07227223  0.89187934  0.12905211    -0.02000
C728        C  0.04710873  0.88759062  0.15071925     0.07680
C729        C  0.02043131  0.90783486  0.14846700    -0.02120
C730        C  0.01991907  0.93314051  0.12632221    -0.02120
C731        C  0.04473754  0.93678858  0.10441605     0.07810
C732        C  0.07072889  0.91591695  0.10570590    -0.02310
Br733      Br  0.10574058  0.92212493  0.07711638    -0.00860
Br734      Br  0.11027152  0.86672427  0.13233302    -0.00930
Br735      Br  0.98537721  0.96319422  0.12639158    -0.00890
Br736      Br  0.98360158  0.90019319  0.17439595    -0.00880
C737        C  0.01418985  0.68509358  0.14315503    -0.02000
C738        C  0.04234614  0.70166547  0.14982419     0.07680
C739        C  0.07042918  0.69293090  0.13405414    -0.02120
C740        C  0.07014121  0.66857316  0.11122814    -0.02120
C741        C  0.04220334  0.65181214  0.10483784     0.07810
C742        C  0.01430752  0.65960591  0.12129718    -0.02310
Br743      Br  0.47633882  0.63536316  0.11407574    -0.00860
Br744      Br  0.47541246  0.69775747  0.16339256    -0.00930
Br745      Br  0.10858525  0.65674136  0.08987490    -0.00890
Br746      Br  0.11011569  0.71235356  0.14534049    -0.00880
C747        C  0.07436276  0.89266563  0.36630252    -0.02000
C748        C  0.04765226  0.88888834  0.34732804     0.07680
C749        C  0.02075729  0.90775773  0.35299827    -0.02120
C750        C  0.02080291  0.93073152  0.37712563    -0.02120
C751        C  0.04798315  0.93601431  0.39503081     0.07810
C752        C  0.07444534  0.91611285  0.39028905    -0.02310
Br753      Br  0.11040904  0.92026492  0.41697172    -0.00860
Br754      Br  0.11062996  0.86592943  0.35912692    -0.00930
Br755      Br  0.48258713  0.95264932  0.38771711    -0.00890
Br756      Br  0.48346865  0.90189626  0.32781064    -0.00880
C757        C  0.02289142  0.70332105  0.37295330    -0.02000
C758        C  0.04385828  0.70291828  0.34674440     0.07680
C759        C  0.06647450  0.67799232  0.34504479    -0.02120
C760        C  0.06469616  0.65168301  0.36583963    -0.02120
C761        C  0.04562049  0.65335104  0.39320561     0.07810
C762        C  0.02554720  0.68014003  0.39710601    -0.02310
Br763      Br  0.99931762  0.68426817  0.43427051    -0.00860
Br764      Br  0.98816753  0.73322290  0.37531541    -0.00930
Br765      Br  0.08703670  0.61298900  0.35471521    -0.00890
Br766      Br  0.10220464  0.68066181  0.31660042    -0.00880
C767        C  0.40664252  0.54441839  0.09827241    -0.02000
C768        C  0.43884732  0.55004850  0.10545652     0.07680
C769        C  0.44693984  0.55335860  0.13786330    -0.02120
C770        C  0.42365567  0.55147857  0.16161881    -0.02120
C771        C  0.39116285  0.55302045  0.15399521     0.07810
C772        C  0.38345430  0.54430546  0.12242314    -0.02310
Br773      Br  0.34451354  0.52202878  0.11268700    -0.00860
Br774      Br  0.39286174  0.53450857  0.05575286    -0.00930
Br775      Br  0.43780173  0.53449175  0.20176623    -0.00890
Br776      Br  0.48974335  0.56050269  0.15214879    -0.00880
C777        C  0.14163496  0.53822051  0.13939819    -0.02000
C778        C  0.15009123  0.53912640  0.10682057     0.07680
C779        C  0.18267290  0.54204794  0.09933982    -0.02120
C780        C  0.20518108  0.54631885  0.12313684    -0.02120
C781        C  0.19738102  0.54080295  0.15533581     0.07810
C782        C  0.16469919  0.54164299  0.16301844    -0.02310
Br783      Br  0.14964222  0.55850715  0.20300733    -0.00860
Br784      Br  0.09878616  0.53077389  0.15386875    -0.00930
Br785      Br  0.24211553  0.57102471  0.11072676    -0.00890
Br786      Br  0.19927053  0.53921877  0.05692912    -0.00880
C787        C  0.18694457  0.58289658  0.36030752    -0.02000
C788        C  0.20079728  0.55440561  0.34926845     0.07680
C789        C  0.19241203  0.52471428  0.36301199    -0.02120
C790        C  0.16964545  0.52348807  0.38708410    -0.02120
C791        C  0.15447386  0.55165012  0.39700198     0.07810
C792        C  0.16440596  0.58153707  0.38481648    -0.02310
Br793      Br  0.15004968  0.62044678  0.40424041    -0.00860
Br794      Br  0.19909495  0.62347920  0.34203862    -0.00930
Br795      Br  0.16085290  0.98359715  0.40810659    -0.00890
Br796      Br  0.21186941  0.98546092  0.34858164    -0.00880
C797        C  0.40902709  0.55002673  0.39980316    -0.02000
C798        C  0.44081076  0.54162051  0.39258813     0.07680
C799        C  0.44731472  0.52970911  0.36167688    -0.02120
C800        C  0.42246902  0.52309859  0.34075126    -0.02120
C801        C  0.39222712  0.53576893  0.34645880     0.07580
C802        C  0.38639894  0.55096020  0.37577202    -0.02310
Br803      Br  0.34907812  0.57672360  0.38292835    -0.00860
Br804      Br  0.39384979  0.55911314  0.44214486    -0.00930
Br805      Br  0.42976416  0.99415113  0.30581530    -0.00890
Br806      Br  0.48955302  0.02342389  0.34550016    -0.00880
C807        C  0.20256531  0.92248433  0.02094409    -0.02000
C808        C  0.19763787  0.88981249  0.51403956     0.07680
C809        C  0.16798928  0.88082110  0.50131588    -0.02120
C810        C  0.14317583  0.90326115  0.50013537    -0.02120
C811        C  0.14982163  0.93662146  0.50319751     0.07810
C812        C  0.18130692  0.94545089  0.00998059    -0.02310
Br813      Br  0.19940059  0.98582362  0.99684675    -0.00860
Br814      Br  0.23652535  0.93684796  0.04747767    -0.00930
Br815      Br  0.10121309  0.88657456  0.49315373    -0.00890
Br816      Br  0.16129723  0.83974075  0.48096617    -0.00880
C817        C  0.15110121  0.67712702  0.47389262    -0.02000
C818        C  0.15192994  0.65199861  0.49641912     0.07680
C819        C  0.17696103  0.65049974  0.01793895    -0.02120
C820        C  0.20140793  0.67312183  0.01646877    -0.02120
C821        C  0.20150862  0.69711690  0.49288103     0.07810
C822        C  0.17638960  0.69891626  0.47147051    -0.02310
Br823      Br  0.17698584  0.73077592  0.43833465    -0.00860
Br824      Br  0.11515796  0.68290436  0.44685676    -0.00930
Br825      Br  0.23332690  0.67248495  0.04880900    -0.00890
Br826      Br  0.17618135  0.61974379  0.05198711    -0.00880
C827        C  0.41892769  0.70076703  0.02873534    -0.02000
C828        C  0.39434676  0.70021139  0.50675125     0.07680
C829        C  0.39611407  0.67938713  0.48049512    -0.02120
C830        C  0.42133731  0.65793362  0.47746427    -0.02120
C831        C  0.44471649  0.65683786  0.50066902     0.07810
C832        C  0.44477279  0.68012640  0.02485034    -0.02310
Br833      Br  0.48127230  0.68656149  0.05055911    -0.00860
Br834      Br  0.41686365  0.72930335  0.06451746    -0.00930
Br835      Br  0.42691941  0.63404271  0.43893337    -0.00890
Br836      Br  0.36526205  0.68149753  0.44727999    -0.00880
C837        C  0.41680366  0.94138382  0.46651672    -0.02000
C838        C  0.43647825  0.94221576  0.99321470     0.07680
C839        C  0.43168210  0.91978150  0.01763643    -0.02120
C840        C  0.40794236  0.89634254  0.01502548    -0.02120
C841        C  0.38980477  0.89424517  0.98725595     0.07810
C842        C  0.39432065  0.91683072  0.46304035    -0.02310
Br843      Br  0.37042526  0.91337865  0.42467402    -0.00860
Br844      Br  0.41984552  0.97402809  0.43479031    -0.00930
Br845      Br  0.39925304  0.86823621  0.05033994    -0.00890
Br846      Br  0.45638468  0.92243371  0.05550462    -0.00880
C847        C  0.36542407  0.86900563  0.98464678     0.02970
C848        C  0.37460220  0.83610260  0.98385411    -0.13170
C849        C  0.35270439  0.81291173  0.99357793     0.00480
C850        C  0.32500092  0.82436798  0.50665003    -0.11700
C851        C  0.31151484  0.85270267  0.49604795     0.02970
C852        C  0.33277134  0.87696509  0.48699422    -0.11120
H853        H  0.39837044  0.82920948  0.97760362     0.08560
H854        H  0.31112193  0.80843126  0.52016798     0.06090
H855        H  0.32465990  0.90128624  0.48331751     0.05940
C856        C  0.36937311  0.72468186  0.00766424     0.02970
C857        C  0.37712639  0.75717935  0.00114195    -0.13170
C858        C  0.35387960  0.77723121  0.98899447     0.00480
C859        C  0.32553346  0.76248952  0.48021504    -0.11700
C860        C  0.31449394  0.73571771  0.49687087     0.02970
C861        C  0.33726609  0.71540982  0.00978326    -0.11120
H862        H  0.40076995  0.76620696  0.00439749     0.08560
H863        H  0.30986743  0.77527324  0.46527974     0.06090
H864        H  0.33053847  0.69233495  0.01953597     0.05940
C865        C  0.22574335  0.72257861  0.49408636     0.02970
C866        C  0.25813140  0.71478635  0.49169607    -0.13170
C867        C  0.28026272  0.73528912  0.50548549     0.00480
C868        C  0.26855808  0.76162753  0.52248801    -0.11700
C869        C  0.23939377  0.77513008  0.51458459     0.02970
C870        C  0.21690242  0.75432235  0.50207870    -0.11120
H871        H  0.26563408  0.69246435  0.48099717     0.08560
H872        H  0.28373167  0.77419350  0.53830148     0.06090
H873        H  0.19293541  0.76246558  0.49919795     0.05940
C874        C  0.22449523  0.86656369  0.51495941     0.02970
C875        C  0.25533515  0.87582613  0.50447661    -0.13170
C876        C  0.27607134  0.85206128  0.49406313     0.00480
C877        C  0.26249389  0.82209853  0.48822242    -0.11700
C878        C  0.23902751  0.81051751  0.50821328     0.02970
C879        C  0.21920659  0.83347655  0.52208731    -0.11120
H880        H  0.26263367  0.90053700  0.00229774     0.08560
H881        H  0.27449635  0.80559340  0.47344295     0.06090
H882        H  0.19869488  0.82581733  0.53539303     0.05940
C883        C  0.36788755  0.53659312  0.82107377     0.02970
C884        C  0.33548094  0.53104362  0.82827432    -0.13170
C885        C  0.31250899  0.54534373  0.80923005     0.00480
C886        C  0.32333930  0.56454129  0.78443440    -0.11700
C887        C  0.35224157  0.55779021  0.76994575     0.02970
C888        C  0.37593776  0.54652665  0.78980298    -0.11120
H889        H  0.32850489  0.51826077  0.84946181     0.08560
H890        H  0.30725983  0.57992313  0.77279274     0.06090
H891        H  0.39994283  0.54682689  0.78131995     0.05940
C892        C  0.22485720  0.55465724  0.82407691     0.02970
C893        C  0.25703829  0.55160478  0.83203030    -0.13170
C894        C  0.27789650  0.53819944  0.81000197     0.00480
C895        C  0.26464461  0.52587918  0.78231549    -0.11700
C896        C  0.23686301  0.53903266  0.77022926     0.02970
C897        C  0.21566883  0.55213331  0.79212232    -0.11120
H898        H  0.26527664  0.55839539  0.85518865     0.08560
H899        H  0.27768348  0.50930523  0.76822919     0.06090
H900        H  0.19236185  0.55927146  0.78480738     0.05940
C901        C  0.22277684  0.53790099  0.68050067     0.02970
C902        C  0.21579521  0.53362805  0.71326412    -0.13170
C903        C  0.23657166  0.54642878  0.73557467     0.00480
C904        C  0.26267012  0.56272593  0.72349222    -0.11700
C905        C  0.27635228  0.55215953  0.69529955     0.02970
C906        C  0.25564098  0.53901493  0.67313817    -0.11120
H907        H  0.19529158  0.52053853  0.72122037     0.08560
H908        H  0.27577327  0.57789083  0.73855893     0.06090
H909        H  0.26490623  0.52954329  0.65129773     0.05940
C910        C  0.36590688  0.55899471  0.67921688     0.02970
C911        C  0.37316340  0.56361911  0.71189675    -0.13170
C912        C  0.35152080  0.55279503  0.73477378     0.00480
C913        C  0.32465737  0.53803985  0.72321331    -0.11700
C914        C  0.31156378  0.54869377  0.69519158     0.02970
C915        C  0.33300191  0.55971489  0.67222190    -0.11120
H916        H  0.39458924  0.57512948  0.71934978     0.08560
H917        H  0.31082297  0.52413350  0.73873288     0.06090
H918        H  0.32438296  0.56834752  0.64988228     0.05940
C919        C  0.03991974  0.72589381  0.81964890     0.02970
C920        C  0.03436649  0.75926157  0.82448050    -0.13170
C921        C  0.02541910  0.77942338  0.79917336     0.00480
C922        C  0.02410478  0.76512955  0.76912756    -0.11700
C923        C  0.03716784  0.73510559  0.76311910     0.02970
C924        C  0.04207002  0.71436350  0.78830132    -0.11120
H925        H  0.03687782  0.76913003  0.84786721     0.08560
H926        H  0.01850503  0.77871154  0.74836788     0.06090
H927        H  0.04831416  0.68974942  0.78327263     0.05940
C928        C  0.04671505  0.86550919  0.82128548     0.02970
C929        C  0.03641189  0.83358543  0.82663175    -0.13170
C930        C  0.02385963  0.81580952  0.80131006     0.00480
C931        C  0.01678783  0.83379682  0.77404569    -0.11700
C932        C  0.03697129  0.85906067  0.76561010     0.02970
C933        C  0.05091192  0.87637663  0.79002143    -0.11120
H934        H  0.03782328  0.82339916  0.85004328     0.08560
H935        H  0.00232463  0.82401976  0.75559463     0.06090
H936        H  0.06400310  0.89813985  0.78498107     0.05940
C937        C  0.04417649  0.72490689  0.67616123     0.02970
C938        C  0.03999437  0.71394634  0.70742102    -0.13170
C939        C  0.05306830  0.73169731  0.73195171     0.00480
C940        C  0.07326219  0.75703870  0.72374721    -0.11700
C941        C  0.06655716  0.77495109  0.69634253     0.02970
C942        C  0.05385491  0.75717615  0.67105527    -0.11120
H943        H  0.02737940  0.69190567  0.71249367     0.08560
H944        H  0.08744362  0.76686948  0.74238533     0.06090
H945        H  0.05202849  0.76757479  0.64776301     0.05940
C946        C  0.05040588  0.86462285  0.67763949     0.02970
C947        C  0.04636383  0.87592423  0.70881970    -0.13170
C948        C  0.05220531  0.85558926  0.73416227     0.00480
C949        C  0.06588831  0.82576443  0.72835630    -0.11700
C950        C  0.06537368  0.81139597  0.69830087     0.02970
C951        C  0.05763258  0.83163277  0.67265091    -0.11120
H952        H  0.03807582  0.90003911  0.71337086     0.08560
H953        H  0.07152499  0.81232004  0.74919116     0.06090
H954        H  0.05742580  0.82220627  0.64891078     0.05940
O955        O  0.45362693  0.99621199  0.49709435    -0.80290
O956        O  0.13362424  0.99154965  0.00069765    -0.81840
O957        O  0.04664829  0.95243463  0.94835410    -0.78860
O958        O  0.04343637  0.95328759  0.55094464    -0.77240
O959        O  0.04393706  0.99178137  0.58944237    -0.79030
O960        O  0.04800085  0.99114338  0.90983353    -0.79970
O961        O  0.09561131  0.95335137  0.00071013    -0.81290
O962        O  0.49061309  0.95624921  0.49621159    -0.81580
Eu963      Eu  0.04398532  0.98017376  0.99921228     2.39200
O964        O  0.07610318  0.51206462  0.53136530    -0.89090
O965        O  0.01379886  0.51406911  0.96714178    -0.92700
C966        C  0.46188277  0.96646734  0.49567041     1.01990
C967        C  0.12474653  0.96198861  0.00102325     1.01810
C968        C  0.04785553  0.96153461  0.91930821     1.01760
C969        C  0.04377590  0.96230169  0.58006309     0.99620
H970        H  0.09103261  0.49893760  0.95462364     0.29360
O971        O  0.07757912  0.51230051  0.96748562    -1.01480
H972        H  0.99819801  0.50001073  0.54396037     0.29400
O973        O  0.01198268  0.51313935  0.53110165    -1.04020
O974        O  0.13531399  0.59756713  0.99832073    -0.81250
O975        O  0.45841480  0.60172259  0.99879360    -0.80780
O976        O  0.10027604  0.54924644  0.91076188    -0.79220
O977        O  0.09610709  0.54232185  0.58956223    -0.82560
O978        O  0.49266426  0.54508086  0.58864419    -0.80420
O979        O  0.49531381  0.54422502  0.90834655    -0.79070
O980        O  0.04825622  0.63636998  0.94681644    -0.80590
O981        O  0.04462524  0.63583354  0.55154153    -0.82510
O982        O  0.04549406  0.59805609  0.90845338    -0.79250
O983        O  0.04224803  0.59707035  0.58994503    -0.81930
O984        O  0.13726907  0.54742752  0.94980805    -0.77660
O985        O  0.45767090  0.54522143  0.94641554    -0.77690
O986        O  0.45592356  0.55142640  0.55087904    -0.77340
O987        O  0.13424682  0.54153709  0.55223333    -0.80830
O988        O  0.09819148  0.63713109  0.99863051    -0.80260
O989        O  0.49758301  0.63940243  0.99971947    -0.78590
Eu990      Eu  0.10912459  0.54466595  0.00022418     2.39770
Eu991      Eu  0.48199288  0.54748976  0.99877513     2.39570
Eu992      Eu  0.04693572  0.54523924  0.93465319     2.38400
Eu993      Eu  0.04460457  0.54472418  0.56340757     2.39880
Eu994      Eu  0.04716909  0.61040017  0.99917868     2.39790
O995        O  0.01447005  0.57841796  0.53104043    -0.93000
O996        O  0.07850295  0.57718757  0.96744330    -0.91890
C997        C  0.12684798  0.62734934  0.99778358     1.02170
C998        C  0.46847560  0.63104493  0.99967312     1.00890
C999        C  0.12898234  0.54958438  0.92072803     1.00280
C1000       C  0.12528650  0.54076108  0.58130627     1.02290
C1001       C  0.46398578  0.54894519  0.58005264     1.01210
C1002       C  0.46622701  0.54397699  0.91723738     1.00060
C1003       C  0.04664814  0.62757336  0.91766134     1.00110
C1004       C  0.04263151  0.62654747  0.58056216     1.02730
H1005       H  0.00224302  0.59241520  0.95331526     0.30100
O1006       O  0.01504194  0.57881656  0.96645809    -1.05160
H1007       H  0.09105735  0.59088433  0.54576763     0.32150
O1008       O  0.07792706  0.57779331  0.53243656    -1.07720
C1009       C  0.07227256  0.89188451  0.62904861    -0.02000
C1010       C  0.04710988  0.88760013  0.65071770     0.07680
C1011       C  0.02043367  0.90784599  0.64846474    -0.02120
C1012       C  0.01992224  0.93314924  0.62631748    -0.02120
C1013       C  0.04473933  0.93679206  0.60440900     0.07810
C1014       C  0.07072884  0.91591834  0.60569886    -0.02310
Br1015     Br  0.10573737  0.92211798  0.57710364    -0.00860
Br1016     Br  0.11027187  0.86672972  0.63233167    -0.00930
Br1017     Br  0.98538351  0.96320705  0.62638654    -0.00890
Br1018     Br  0.98360414  0.90020990  0.67439553    -0.00880
C1019       C  0.01420308  0.68508288  0.64317279    -0.02000
C1020       C  0.04235348  0.70167269  0.64982549     0.07680
C1021       C  0.07043396  0.69295096  0.63404329    -0.02120
C1022       C  0.07014777  0.66859025  0.61122001    -0.02120
C1023       C  0.04221631  0.65181036  0.60484801     0.07810
C1024       C  0.01432556  0.65958782  0.62132344    -0.02310
Br1025     Br  0.47637131  0.63531016  0.61413762    -0.00860
Br1026     Br  0.47542567  0.69773339  0.66341886    -0.00930
Br1027     Br  0.10858788  0.65677746  0.58984894    -0.00890
Br1028     Br  0.11011689  0.71239345  0.64531021    -0.00880
C1029       C  0.07435773  0.89266527  0.86630856    -0.02000
C1030       C  0.04765054  0.88889732  0.84732759     0.07680
C1031       C  0.02075983  0.90777482  0.85299204    -0.02120
C1032       C  0.02080676  0.93074792  0.87711984    -0.02120
C1033       C  0.04798302  0.93601794  0.89503467     0.07810
C1034       C  0.07444098  0.91610970  0.89029750    -0.02310
Br1035     Br  0.11040183  0.92025295  0.91698587    -0.00860
Br1036     Br  0.11062049  0.86592174  0.85913711    -0.00930
Br1037     Br  0.48259789  0.95268671  0.88769488    -0.00890
Br1038     Br  0.48347461  0.90192435  0.82779696    -0.00880
C1039       C  0.02289064  0.70332664  0.87294986    -0.02000
C1040       C  0.04385962  0.70292668  0.84674272     0.07680
C1041       C  0.06647664  0.67800137  0.84504297    -0.02120
C1042       C  0.06469693  0.65168979  0.86583512    -0.02120
C1043       C  0.04561808  0.65335423  0.89319897     0.07810
C1044       C  0.02554436  0.68014283  0.89710024    -0.02310
Br1045     Br  0.99931233  0.68426757  0.93426310    -0.00860
Br1046     Br  0.98816716  0.73322896  0.87531277    -0.00930
Br1047     Br  0.08704114  0.61299805  0.85471095    -0.00890
Br1048     Br  0.10220950  0.68067503  0.81660239    -0.00880
C1049       C  0.40661433  0.54451894  0.59822323    -0.02000
C1050       C  0.43882886  0.55006381  0.60543698     0.07680
C1051       C  0.44690994  0.55328939  0.63785524    -0.02120
C1052       C  0.42361425  0.55137755  0.66159530    -0.02120
C1053       C  0.39112741  0.55297814  0.65396375     0.07810
C1054       C  0.38341861  0.54436439  0.62236550    -0.02310
Br1055     Br  0.34446010  0.52215701  0.61254882    -0.00860
Br1056     Br  0.39280681  0.53482139  0.55566362    -0.00930
Br1057     Br  0.43771971  0.53427406  0.70171043    -0.00890
Br1058     Br  0.48970834  0.56037595  0.65218168    -0.00880
C1059       C  0.14162396  0.53819655  0.63941067    -0.02000
C1060       C  0.15008351  0.53910166  0.60683368     0.07680
C1061       C  0.18266738  0.54200759  0.59935590    -0.02120
C1062       C  0.20517767  0.54625171  0.62315655    -0.02120
C1063       C  0.19736900  0.54073906  0.65535507     0.07810
C1064       C  0.16468729  0.54160484  0.66303320    -0.02310
Br1065     Br  0.14963664  0.55849142  0.70301514    -0.00860
Br1066     Br  0.09877022  0.53077531  0.65387925    -0.00930
Br1067     Br  0.24214463  0.57091114  0.61075129    -0.00890
Br1068     Br  0.19926224  0.53919939  0.55694211    -0.00880
C1069       C  0.18695711  0.58291242  0.86031875    -0.02000
C1070       C  0.20081158  0.55442192  0.84928087     0.07680
C1071       C  0.19242224  0.52472954  0.86301937    -0.02120
C1072       C  0.16964899  0.52350160  0.88708438    -0.02120
C1073       C  0.15447398  0.55166261  0.89699929     0.07810
C1074       C  0.16441076  0.58155087  0.88482046    -0.02310
Br1075     Br  0.15004899  0.62045879  0.90424355    -0.00860
Br1076     Br  0.19911516  0.62349648  0.84205812    -0.00930
Br1077     Br  0.16085426  0.98358542  0.90811144    -0.00890
Br1078     Br  0.21185693  0.98544580  0.84857191    -0.00880
C1079       C  0.40902917  0.55001624  0.89979194    -0.02000
C1080       C  0.44081137  0.54160084  0.89258432     0.07680
C1081       C  0.44731515  0.52966714  0.86168150    -0.02120
C1082       C  0.42246879  0.52304020  0.84076172    -0.02120
C1083       C  0.39222891  0.53572088  0.84645789     0.07580
C1084       C  0.38640387  0.55093931  0.87575832    -0.02310
Br1085     Br  0.34909597  0.57672831  0.88289118    -0.00860
Br1086     Br  0.39384944  0.55912516  0.94212734    -0.00930
Br1087     Br  0.42976876  0.99425531  0.80577158    -0.00890
Br1088     Br  0.48955311  0.02347810  0.84549180    -0.00880
C1089       C  0.20256364  0.92248508  0.52093486    -0.02000
C1090       C  0.19763923  0.88981156  0.01405004     0.07680
C1091       C  0.16799000  0.88081956  0.00132827    -0.02120
C1092       C  0.14317653  0.90325936  0.00014896    -0.02120
C1093       C  0.14982303  0.93661977  0.00320812     0.07810
C1094       C  0.18130518  0.94545230  0.50997234    -0.02310
Br1095     Br  0.19939819  0.98582784  0.49684617    -0.00860
Br1096     Br  0.23652304  0.93684742  0.54746999    -0.00930
Br1097     Br  0.10121302  0.88657191  0.99317350    -0.00890
Br1098     Br  0.16129686  0.83973954  0.98097824    -0.00880
C1099       C  0.15109786  0.67713381  0.97388743    -0.02000
C1100       C  0.15192600  0.65200356  0.99641197     0.07680
C1101       C  0.17696522  0.65049642  0.51794604    -0.02120
C1102       C  0.20141047  0.67312038  0.51647527    -0.02120
C1103       C  0.20150713  0.69711970  0.99287595     0.07810
C1104       C  0.17638748  0.69892191  0.97146621    -0.02310
Br1105     Br  0.17698457  0.73078383  0.93833252    -0.00860
Br1106     Br  0.11515324  0.68291617  0.94685440    -0.00930
Br1107     Br  0.23332858  0.67248804  0.54881636    -0.00890
Br1108     Br  0.17618949  0.61973848  0.55199319    -0.00880
C1109       C  0.41891918  0.70075476  0.52875076    -0.02000
C1110       C  0.39434753  0.70021576  0.00674450     0.07680
C1111       C  0.39611029  0.67938872  0.98049011    -0.02120
C1112       C  0.42133491  0.65793759  0.97745553    -0.02120
C1113       C  0.44471989  0.65684730  0.00065435     0.07810
C1114       C  0.44476149  0.68010891  0.52487256    -0.02310
Br1115     Br  0.48124445  0.68651786  0.55061009    -0.00860
Br1116     Br  0.41684745  0.72928767  0.56453509    -0.00930
Br1117     Br  0.42691466  0.63404840  0.93892353    -0.00890
Br1118     Br  0.36525110  0.68149271  0.94728120    -0.00880
C1119       C  0.41680761  0.94138357  0.96652012    -0.02000
C1120       C  0.43647487  0.94221822  0.49321080     0.07680
C1121       C  0.43168013  0.91978488  0.51763351    -0.02120
C1122       C  0.40794202  0.89634411  0.51502358    -0.02120
C1123       C  0.38980515  0.89424360  0.48725381     0.07810
C1124       C  0.39432184  0.91683310  0.96304345    -0.02310
Br1125     Br  0.37042510  0.91338538  0.92467769    -0.00860
Br1126     Br  0.41985709  0.97402547  0.93479146    -0.00930
Br1127     Br  0.39925342  0.86824014  0.55033996    -0.00890
Br1128     Br  0.45638155  0.92244193  0.55550216    -0.00880
C1129       C  0.86542417  0.36900549  0.48464771     0.02970
C1130       C  0.87460228  0.33610242  0.48385555    -0.13170
C1131       C  0.85270423  0.31291163  0.49357908     0.00480
C1132       C  0.82500141  0.32436812  0.00664988    -0.11700
C1133       C  0.81151514  0.35270301  0.99604855     0.02970
C1134       C  0.83277149  0.37696561  0.98699488    -0.11120
H1135       H  0.89837062  0.32920922  0.47760558     0.08560
H1136       H  0.81112272  0.30843115  0.02016787     0.06090
H1137       H  0.82465999  0.40128683  0.98331877     0.05940
C1138       C  0.86937284  0.22468156  0.50766530     0.02970
C1139       C  0.87712613  0.25717916  0.50114349    -0.13170
C1140       C  0.85387948  0.27723106  0.48899582     0.00480
C1141       C  0.82553320  0.26249007  0.98021379    -0.11700
C1142       C  0.81449374  0.23571820  0.99686964     0.02970
C1143       C  0.83726582  0.21540940  0.50978378    -0.11120
H1144       H  0.90076964  0.26620679  0.50439937     0.08560
H1145       H  0.80986711  0.27527390  0.96527861     0.06090
H1146       H  0.83053813  0.19233438  0.51953610     0.05940
C1147       C  0.72574293  0.22257918  0.99408671     0.02970
C1148       C  0.75813096  0.21478697  0.99169562    -0.13170
C1149       C  0.78026261  0.23528960  0.00548478     0.00480
C1150       C  0.76855831  0.26162767  0.02248802    -0.11700
C1151       C  0.73939382  0.27513037  0.01458542     0.02970
C1152       C  0.71690217  0.25432280  0.00207974    -0.11120
H1153       H  0.76563342  0.19246515  0.98099620     0.08560
H1154       H  0.78373225  0.27419346  0.03830128     0.06090
H1155       H  0.69293511  0.26246610  0.99919957     0.05940
C1156       C  0.72449550  0.36656407  0.01496063     0.02970
C1157       C  0.75533546  0.37582648  0.00447793    -0.13170
C1158       C  0.77607159  0.35206161  0.99406440     0.00480
C1159       C  0.76249404  0.32209893  0.98822363    -0.11700
C1160       C  0.73902765  0.31051787  0.00821443     0.02970
C1161       C  0.71920677  0.33347693  0.02208850    -0.11120
H1162       H  0.76263338  0.40053674  0.50229766     0.08560
H1163       H  0.77449639  0.30559383  0.97344409     0.06090
H1164       H  0.69869495  0.32581773  0.03539407     0.05940
C1165       C  0.86788718  0.03659312  0.32107325     0.02970
C1166       C  0.83548055  0.03104374  0.32827381    -0.13170
C1167       C  0.81250862  0.04534375  0.30922943     0.00480
C1168       C  0.82333898  0.06454117  0.28443369    -0.11700
C1169       C  0.85224127  0.05779001  0.26994510     0.02970
C1170       C  0.87593743  0.04652649  0.28980240    -0.11120
H1171       H  0.82850446  0.01826101  0.34946135     0.08560
H1172       H  0.80725957  0.07992300  0.27279196     0.06090
H1173       H  0.89994252  0.04682660  0.28131939     0.05940
C1174       C  0.72485670  0.05465691  0.32407621     0.02970
C1175       C  0.75703780  0.05160464  0.33202963    -0.13170
C1176       C  0.77789612  0.03819942  0.31000131     0.00480
C1177       C  0.76464430  0.02587903  0.28231485    -0.11700
C1178       C  0.73686264  0.03903232  0.27022858     0.02970
C1179       C  0.71566837  0.05213289  0.29212161    -0.11120
H1180       H  0.76527610  0.05839532  0.35518798     0.08560
H1181       H  0.77768326  0.00930514  0.26822859     0.06090
H1182       H  0.69236137  0.05927091  0.28480663     0.05940
C1183       C  0.72277658  0.03790063  0.18049993     0.02970
C1184       C  0.71579486  0.03362771  0.21326339    -0.13170
C1185       C  0.73657131  0.04642840  0.23557398     0.00480
C1186       C  0.76266979  0.06272554  0.22349156    -0.11700
C1187       C  0.77635198  0.05215914  0.19529893     0.02970
C1188       C  0.75564072  0.03901452  0.17313752    -0.11120
H1189       H  0.69529113  0.02053832  0.22121958     0.08560
H1190       H  0.77577290  0.07789044  0.23855829     0.06090
H1191       H  0.76490604  0.02954276  0.15129716     0.05940
C1192       C  0.86590648  0.05899465  0.17921618     0.02970
C1193       C  0.87316306  0.06361899  0.21189606    -0.13170
C1194       C  0.85152053  0.05279480  0.23477312     0.00480
C1195       C  0.82465713  0.03803954  0.22321265    -0.11700
C1196       C  0.81156346  0.04869346  0.19519095     0.02970
C1197       C  0.83300150  0.05971477  0.17222129    -0.11120
H1198       H  0.89458895  0.07512930  0.21934905     0.08560
H1199       H  0.81082281  0.02413309  0.23873221     0.06090
H1200       H  0.82438245  0.06834764  0.14988180     0.05940
C1201       C  0.53991586  0.22589358  0.31964859     0.02970
C1202       C  0.53436354  0.25926149  0.32448036    -0.13170
C1203       C  0.52541675  0.27942373  0.29917331     0.00480
C1204       C  0.52410140  0.26512992  0.26912754    -0.11700
C1205       C  0.53716347  0.23510553  0.26311886     0.02970
C1206       C  0.54206534  0.21436326  0.28830098    -0.11120
H1207       H  0.53687539  0.26912977  0.34786709     0.08560
H1208       H  0.51850200  0.27871215  0.24836790     0.06090
H1209       H  0.54830896  0.18974904  0.28327223     0.05940
C1210       C  0.54671639  0.36550871  0.32128587     0.02970
C1211       C  0.53641197  0.33358530  0.32663186    -0.13170
C1212       C  0.52385920  0.31581001  0.30130998     0.00480
C1213       C  0.51678843  0.33379772  0.27404558    -0.11700
C1214       C  0.53697267  0.35906101  0.26561037     0.02970
C1215       C  0.55091390  0.37637618  0.29002190    -0.11120
H1216       H  0.53782261  0.32339889  0.35004338     0.08560
H1217       H  0.50232493  0.32402148  0.25559435     0.06090
H1218       H  0.56400578  0.39813902  0.28498178     0.05940
C1219       C  0.54417481  0.22490669  0.17616087     0.02970
C1220       C  0.53999123  0.21394635  0.20742058    -0.13170
C1221       C  0.55306444  0.23169727  0.23195171     0.00480
C1222       C  0.57325896  0.25703831  0.22374789    -0.11700
C1223       C  0.56655524  0.27495074  0.19634292     0.02970
C1224       C  0.55385377  0.25717585  0.17105522    -0.11120
H1225       H  0.52737585  0.19190583  0.21249285     0.08560
H1226       H  0.58744003  0.26686855  0.24238651     0.06090
H1227       H  0.55202854  0.26757435  0.14776280     0.05940
C1228       C  0.55040444  0.36462249  0.17763952     0.02970
C1229       C  0.54636369  0.37592429  0.20881972    -0.13170
C1230       C  0.55220625  0.35558967  0.23416232     0.00480
C1231       C  0.56588893  0.32576469  0.22835615    -0.11700
C1232       C  0.56537259  0.31139572  0.19830097     0.02970
C1233       C  0.55763052  0.33163226  0.17265110    -0.11120
H1234       H  0.53807595  0.40003925  0.21337093     0.08560
H1235       H  0.57152648  0.31232070  0.24919100     0.06090
H1236       H  0.55742248  0.32220547  0.14891111     0.05940
O1237       O  0.95362901  0.49621046  0.99710348    -0.80290
O1238       O  0.63362444  0.49154946  0.50069855    -0.81840
O1239       O  0.54665045  0.45243371  0.44835196    -0.78860
O1240       O  0.54343968  0.45328493  0.05094319    -0.77240
O1241       O  0.54393988  0.49178229  0.08944461    -0.79030
O1242       O  0.54800173  0.49114309  0.40983394    -0.79970
O1243       O  0.59561501  0.45335005  0.50070986    -0.81290
O1244       O  0.99061783  0.45625357  0.99621404    -0.81580
Eu1245     Eu  0.54401305  0.48017086  0.49919534     2.39200
O1246       O  0.57609581  0.01206521  0.03136430    -0.89090
O1247       O  0.51380178  0.01407161  0.46714187    -0.92700
C1248       C  0.96188572  0.46646862  0.99567470     1.01990
C1249       C  0.62474770  0.46198834  0.50102440     1.01810
C1250       C  0.54785623  0.46153424  0.41930782     1.01760
C1251       C  0.54377794  0.46230029  0.08006404     0.99620
H1252       H  0.59102903  0.99893791  0.45462592     0.29360
O1253       O  0.57757393  0.01229876  0.46748921    -1.01480
H1254       H  0.49758035  0.00025760  0.04372098     0.29400
O1255       O  0.51176011  0.01311457  0.03112598    -1.04020
O1256       O  0.63531345  0.09756675  0.49831984    -0.81250
O1257       O  0.95841346  0.10172331  0.49879354    -0.80780
O1258       O  0.60027534  0.04924605  0.41076112    -0.79220
O1259       O  0.59610292  0.04232032  0.08956025    -0.82560
O1260       O  0.99265997  0.04508250  0.08864780    -0.80420
O1261       O  0.99531311  0.04422482  0.40834649    -0.79070
O1262       O  0.54825479  0.13636986  0.44681611    -0.80590
O1263       O  0.54462481  0.13583345  0.05154081    -0.82510
O1264       O  0.54549270  0.09805588  0.40845310    -0.79250
O1265       O  0.54224698  0.09706783  0.08994384    -0.81930
O1266       O  0.63726833  0.04742693  0.44980717    -0.77660
O1267       O  0.95766953  0.04522098  0.44641477    -0.77690
O1268       O  0.95592332  0.05143366  0.05087689    -0.77340
O1269       O  0.63424639  0.04153716  0.05223266    -0.80830
O1270       O  0.59819113  0.13713076  0.49862979    -0.80260
O1271       O  0.99758257  0.13940212  0.49971880    -0.78590
Eu1272     Eu  0.60912342  0.04466554  0.50022357     2.39770
Eu1273     Eu  0.98199609  0.04750697  0.49875825     2.39570
Eu1274     Eu  0.54693616  0.04523866  0.43465240     2.38400
Eu1275     Eu  0.54457553  0.04470644  0.06340398     2.39880
Eu1276     Eu  0.54716967  0.11040021  0.49917854     2.39790
O1277       O  0.51447316  0.07841747  0.03103704    -0.93000
O1278       O  0.57850263  0.07718743  0.46744263    -0.91890
C1279       C  0.62684754  0.12734897  0.49778272     1.02170
C1280       C  0.96847496  0.13104488  0.49967302     1.00890
C1281       C  0.62898159  0.04958386  0.42072717     1.00280
C1282       C  0.62528500  0.04076116  0.08130549     1.02290
C1283       C  0.96398364  0.04894916  0.08005300     1.01210
C1284       C  0.96622616  0.04397633  0.41723722     1.00060
C1285       C  0.54664648  0.12757320  0.41766103     1.00110
C1286       C  0.54263160  0.12654664  0.08056147     1.02730
H1287       H  0.50224406  0.09241422  0.45331556     0.30100
O1288       O  0.51504677  0.07881769  0.46645616    -1.05160
H1289       H  0.59105410  0.09088144  0.04576610     0.32150
O1290       O  0.57792202  0.07778902  0.03243721    -1.07720
C1291       C  0.57227027  0.39188287  0.12904772    -0.02000
C1292       C  0.54710810  0.38759949  0.15071757     0.07680
C1293       C  0.52043231  0.40784608  0.14846519    -0.02120
C1294       C  0.51992099  0.43314917  0.12631785    -0.02120
C1295       C  0.54473800  0.43679078  0.10440929     0.07810
C1296       C  0.57072675  0.41591655  0.10569824    -0.02310
Br1297     Br  0.60573488  0.42211541  0.07710205    -0.00860
Br1298     Br  0.61026881  0.36672679  0.13232939    -0.00930
Br1299     Br  0.48538284  0.46320767  0.12638716    -0.00890
Br1300     Br  0.48360334  0.40021113  0.17439702    -0.00880
C1301       C  0.51420210  0.18508266  0.14317178    -0.02000
C1302       C  0.54235235  0.20167251  0.14982502     0.07680
C1303       C  0.57043308  0.19295095  0.13404310    -0.02120
C1304       C  0.57014728  0.16859040  0.11121960    -0.02120
C1305       C  0.54221611  0.15181026  0.10484725     0.07810
C1306       C  0.51432502  0.15958766  0.12132235    -0.02310
Br1307     Br  0.97637140  0.13531014  0.11413758    -0.00860
Br1308     Br  0.97542572  0.19773341  0.16341879    -0.00930
Br1309     Br  0.60858762  0.15677797  0.08984876    -0.00890
Br1310     Br  0.61011583  0.21239343  0.14531065    -0.00880
C1311       C  0.57435880  0.39266461  0.36630936    -0.02000
C1312       C  0.54765180  0.38889683  0.34732806     0.07680
C1313       C  0.52076111  0.40777443  0.35299230    -0.02120
C1314       C  0.52080779  0.43074732  0.37712028    -0.02120
C1315       C  0.54798381  0.43601739  0.39503515     0.07810
C1316       C  0.57444187  0.41610904  0.39029834    -0.02310
Br1317     Br  0.61040239  0.42025190  0.41698727    -0.00860
Br1318     Br  0.61062146  0.36592083  0.35913834    -0.00930
Br1319     Br  0.98259749  0.45268469  0.38769750    -0.00890
Br1320     Br  0.98347454  0.40192392  0.32779816    -0.00880
C1321       C  0.52288755  0.20332617  0.37294964    -0.02000
C1322       C  0.54385617  0.20292636  0.34674225     0.07680
C1323       C  0.56647337  0.17800124  0.34504217    -0.02120
C1324       C  0.56469439  0.15168979  0.36583455    -0.02120
C1325       C  0.54561581  0.15335405  0.39319862     0.07810
C1326       C  0.52554176  0.18014239  0.39710000    -0.02310
Br1327     Br  0.49931009  0.18426691  0.43426311    -0.00860
Br1328     Br  0.48816407  0.23322844  0.37531290    -0.00930
Br1329     Br  0.58703947  0.11299851  0.35471062    -0.00890
Br1330     Br  0.60220546  0.18067503  0.31660062    -0.00880
C1331       C  0.90661391  0.04451957  0.09822253    -0.02000
C1332       C  0.93882792  0.05006448  0.10543672     0.07680
C1333       C  0.94690943  0.05328910  0.13785493    -0.02120
C1334       C  0.92361375  0.05137717  0.16159473    -0.02120
C1335       C  0.89112696  0.05297819  0.15396302     0.07810
C1336       C  0.88341818  0.04436493  0.12236461    -0.02310
Br1337     Br  0.84445950  0.02215820  0.11254736    -0.00860
Br1338     Br  0.89280659  0.03482299  0.05566257    -0.00930
Br1339     Br  0.93771890  0.03427309  0.20170966    -0.00890
Br1340     Br  0.98970792  0.06037539  0.15218167    -0.00880
C1341       C  0.64162368  0.03819697  0.13940997    -0.02000
C1342       C  0.65008301  0.03910174  0.10683298     0.07680
C1343       C  0.68266711  0.04200687  0.09935510    -0.02120
C1344       C  0.70517750  0.04625096  0.12315570    -0.02120
C1345       C  0.69736878  0.04073878  0.15535429     0.07810
C1346       C  0.66468710  0.04160510  0.16303245    -0.02310
Br1347     Br  0.64963678  0.05849216  0.20301432    -0.00860
Br1348     Br  0.59876982  0.03077679  0.15387872    -0.00930
Br1349     Br  0.74214467  0.07090986  0.11075009    -0.00890
Br1350     Br  0.69926190  0.03919776  0.05694136    -0.00880
C1351       C  0.68695657  0.08291199  0.36031809    -0.02000
C1352       C  0.70081102  0.05442151  0.34928012     0.07680
C1353       C  0.69242147  0.02472908  0.36301838    -0.02120
C1354       C  0.66964808  0.02350107  0.38708326    -0.02120
C1355       C  0.65447315  0.05166208  0.39699832     0.07810
C1356       C  0.66441006  0.08155036  0.38481965    -0.02310
Br1357     Br  0.65004812  0.12045824  0.40424266    -0.00860
Br1358     Br  0.69911490  0.12349612  0.34205779    -0.00930
Br1359     Br  0.66085358  0.48358513  0.40811143    -0.00890
Br1360     Br  0.71185699  0.48544563  0.34857265    -0.00880
C1361       C  0.90902872  0.05001618  0.39979148    -0.02000
C1362       C  0.94081079  0.04160018  0.39258410     0.07680
C1363       C  0.94731460  0.02966629  0.36168136    -0.02120
C1364       C  0.92246827  0.02303971  0.34076141    -0.02120
C1365       C  0.89222852  0.03572080  0.34645740     0.07580
C1366       C  0.88640354  0.05093942  0.37575774    -0.02310
Br1367     Br  0.84909591  0.07672890  0.38289030    -0.00860
Br1368     Br  0.89384901  0.05912560  0.44212676    -0.00930
Br1369     Br  0.92976875  0.49424667  0.30577656    -0.00890
Br1370     Br  0.98955346  0.52347468  0.34549318    -0.00880
C1371       C  0.70256380  0.42248544  0.02093560    -0.02000
C1372       C  0.69763903  0.38981103  0.51405023     0.07680
C1373       C  0.66798962  0.38081922  0.50132874    -0.02120
C1374       C  0.64317619  0.40325907  0.50015004    -0.02120
C1375       C  0.64982304  0.43661947  0.50320946     0.07810
C1376       C  0.68130545  0.44545257  0.00997280    -0.02310
Br1377     Br  0.69939852  0.48582795  0.99684619    -0.00860
Br1378     Br  0.73652295  0.43684800  0.04747092    -0.00930
Br1379     Br  0.60121249  0.38657171  0.49317526    -0.00890
Br1380     Br  0.66129613  0.33973952  0.48097820    -0.00880
C1381       C  0.65109768  0.17713319  0.47388630    -0.02000
C1382       C  0.65192562  0.15200313  0.49641105     0.07680
C1383       C  0.67696505  0.15049629  0.01794527    -0.02120
C1384       C  0.70141024  0.17312038  0.01647479    -0.02120
C1385       C  0.70150702  0.19711903  0.49287480     0.07810
C1386       C  0.67638750  0.19892105  0.47146486    -0.02310
Br1387     Br  0.67698506  0.23078231  0.43833058    -0.00860
Br1388     Br  0.61515300  0.18291566  0.44685336    -0.00930
Br1389     Br  0.73332872  0.17248733  0.04881549    -0.00890
Br1390     Br  0.67618958  0.11973775  0.05199194    -0.00880
C1391       C  0.91891894  0.20075515  0.02874942    -0.02000
C1392       C  0.89434726  0.20021550  0.50674517     0.07680
C1393       C  0.89611002  0.17938889  0.48049043    -0.02120
C1394       C  0.92133458  0.15793776  0.47745557    -0.02120
C1395       C  0.94471959  0.15684724  0.50065438     0.07810
C1396       C  0.94476111  0.18010905  0.02487167    -0.02310
Br1397     Br  0.98124379  0.18651775  0.05060965    -0.00860
Br1398     Br  0.91684729  0.22928867  0.06453330    -0.00930
Br1399     Br  0.92691418  0.13404886  0.43892336    -0.00890
Br1400     Br  0.86525096  0.18149353  0.44728144    -0.00880
C1401       C  0.91680773  0.44138406  0.46652107    -0.02000
C1402       C  0.93647601  0.44221909  0.99321174     0.07680
C1403       C  0.93168055  0.41978518  0.01763366    -0.02120
C1404       C  0.90794237  0.39634438  0.01502349    -0.02120
C1405       C  0.88980536  0.39424416  0.98725385     0.07810
C1406       C  0.89432189  0.41683319  0.46304428    -0.02310
Br1407     Br  0.87042518  0.41338516  0.42467844    -0.00860
Br1408     Br  0.91985619  0.47402616  0.43479270    -0.00930
Br1409     Br  0.89925400  0.36823994  0.05033961    -0.00890
Br1410     Br  0.95638195  0.42244188  0.05550231    -0.00880
C1411       C  0.86542520  0.36900389  0.98464632     0.02970
C1412       C  0.87460371  0.33610089  0.98385587    -0.13170
C1413       C  0.85270630  0.31291037  0.99358150     0.00480
C1414       C  0.82499938  0.32436876  0.50664760    -0.11700
C1415       C  0.81151365  0.35270414  0.49604751     0.02970
C1416       C  0.83277042  0.37696733  0.48699598    -0.11120
H1417       H  0.89837193  0.32920764  0.97760545     0.08560
H1418       H  0.81112029  0.30843122  0.52016458     0.06090
H1419       H  0.82465918  0.40128885  0.48332122     0.05940
C1420       C  0.86937289  0.22467876  0.00766697     0.02970
C1421       C  0.87712724  0.25717650  0.00114649    -0.13170
C1422       C  0.85388126  0.27722952  0.98899851     0.00480
C1423       C  0.82553149  0.26249077  0.48021204    -0.11700
C1424       C  0.81449323  0.23571867  0.49686835     0.02970
C1425       C  0.83726557  0.21540746  0.00978416    -0.11120
H1426       H  0.90077077  0.26620334  0.00440434     0.08560
H1427       H  0.80986416  0.27527445  0.46527805     0.06090
H1428       H  0.83053697  0.19233245  0.01953591     0.05940
C1429       C  0.72574270  0.22257999  0.49408214     0.02970
C1430       C  0.75813075  0.21478723  0.49169247    -0.13170
C1431       C  0.78026219  0.23528904  0.50548339     0.00480
C1432       C  0.76855784  0.26162702  0.52248660    -0.11700
C1433       C  0.73939391  0.27513014  0.51458326     0.02970
C1434       C  0.71690238  0.25432348  0.50207595    -0.11120
H1435       H  0.76563333  0.19246570  0.48099255     0.08560
H1436       H  0.78373174  0.27419262  0.53830017     0.06090
H1437       H  0.69293561  0.26246740  0.49919521     0.05940
C1438       C  0.72449676  0.36656305  0.51496711     0.02970
C1439       C  0.75533529  0.37582657  0.50448162    -0.13170
C1440       C  0.77607021  0.35206290  0.49406350     0.00480
C1441       C  0.76249221  0.32210037  0.48822163    -0.11700
C1442       C  0.73902778  0.31051778  0.50821421     0.02970
C1443       C  0.71920909  0.33347556  0.52209313    -0.11120
H1444       H  0.76263386  0.40053646  0.00229269     0.08560
H1445       H  0.77449351  0.30559635  0.47343980     0.06090
H1446       H  0.69869895  0.32581524  0.53540072     0.05940
C1447       C  0.86788602  0.03666611  0.82107376     0.02970
C1448       C  0.83548170  0.03108999  0.82826479    -0.13170
C1449       C  0.81250331  0.04539281  0.80922993     0.00480
C1450       C  0.82332564  0.06462503  0.78445609    -0.11700
C1451       C  0.85223451  0.05790401  0.76996365     0.02970
C1452       C  0.87593461  0.04663741  0.78981438    -0.11120
H1453       H  0.82851065  0.01828055  0.84943840     0.08560
H1454       H  0.80723464  0.08000176  0.77282223     0.06090
H1455       H  0.89994078  0.04695884  0.78133489     0.05940
C1456       C  0.72484428  0.05464230  0.82406440     0.02970
C1457       C  0.75702525  0.05160246  0.83202168    -0.13170
C1458       C  0.77789526  0.03822206  0.80998999     0.00480
C1459       C  0.76465475  0.02590971  0.78229386    -0.11700
C1460       C  0.73686935  0.03905724  0.77020864     0.02970
C1461       C  0.71566334  0.05213198  0.79210630    -0.11120
H1462       H  0.76525620  0.05838783  0.85518423     0.08560
H1463       H  0.77769879  0.00933815  0.76820747     0.06090
H1464       H  0.69235515  0.05926521  0.78479069     0.05940
C1465       C  0.72279517  0.03798534  0.68047563     0.02970
C1466       C  0.71581680  0.03367810  0.71323544    -0.13170
C1467       C  0.73658031  0.04647826  0.73555787     0.00480
C1468       C  0.76266501  0.06281000  0.72348950    -0.11700
C1469       C  0.77636049  0.05227714  0.69528849     0.02970
C1470       C  0.75565930  0.03913885  0.67311322    -0.11120
H1471       H  0.69532287  0.02056516  0.72117983     0.08560
H1472       H  0.77575722  0.07796865  0.73857302     0.06090
H1473       H  0.76493395  0.02969203  0.65126654     0.05940
C1474       C  0.86593496  0.05908008  0.67923421     0.02970
C1475       C  0.87317580  0.06372469  0.71191586    -0.13170
C1476       C  0.85151830  0.05292269  0.73478859     0.00480
C1477       C  0.82465584  0.03817608  0.72322167    -0.11700
C1478       C  0.81157592  0.04882154  0.69519211     0.02970
C1479       C  0.83303165  0.05980729  0.67221961    -0.11120
H1480       H  0.89459334  0.07524376  0.71937563     0.08560
H1481       H  0.81081124  0.02428166  0.73873943     0.06090
H1482       H  0.82443163  0.06839493  0.64985491     0.05940
C1483       C  0.53991672  0.22588361  0.81964921     0.02970
C1484       C  0.53436493  0.25925145  0.82448119    -0.13170
C1485       C  0.52541796  0.27941377  0.79917455     0.00480
C1486       C  0.52410238  0.26512030  0.76912856    -0.11700
C1487       C  0.53716343  0.23509553  0.76311929     0.02970
C1488       C  0.54206580  0.21435318  0.78830146    -0.11120
H1489       H  0.53687667  0.26911956  0.84786803     0.08560
H1490       H  0.51850292  0.27870293  0.74836918     0.06090
H1491       H  0.54830888  0.18973883  0.78327268     0.05940
C1492       C  0.54671683  0.36549952  0.82128602     0.02970
C1493       C  0.53641378  0.33357565  0.82663293    -0.13170
C1494       C  0.52385947  0.31579989  0.80131196     0.00480
C1495       C  0.51678600  0.33378730  0.77404827    -0.11700
C1496       C  0.53696964  0.35905034  0.76561126     0.02970
C1497       C  0.55091197  0.37636648  0.79002158    -0.11120
H1498       H  0.53782659  0.32338931  0.85004434     0.08560
H1499       H  0.50232123  0.32401045  0.75559831     0.06090
H1500       H  0.56400295  0.39812956  0.78498017     0.05940
C1501       C  0.54416958  0.22489796  0.67616022     0.02970
C1502       C  0.53998596  0.21393749  0.70741981    -0.13170
C1503       C  0.55306214  0.23168682  0.73195084     0.00480
C1504       C  0.57325764  0.25702712  0.72374636    -0.11700
C1505       C  0.56655376  0.27494014  0.69634171     0.02970
C1506       C  0.55385163  0.25716590  0.67105411    -0.11120
H1507       H  0.52736781  0.19189848  0.71249164     0.08560
H1508       H  0.58743947  0.26685728  0.74238452     0.06090
H1509       H  0.55202704  0.26756442  0.64776163     0.05940
C1510       C  0.55040114  0.36461216  0.67764005     0.02970
C1511       C  0.54635911  0.37591292  0.70882039    -0.13170
C1512       C  0.55220172  0.35557802  0.73416265     0.00480
C1513       C  0.56588449  0.32575308  0.72835621    -0.11700
C1514       C  0.56537007  0.31138509  0.69830053     0.02970
C1515       C  0.55762879  0.33162234  0.67265080    -0.11120
H1516       H  0.53807039  0.40002750  0.71337186     0.08560
H1517       H  0.57152164  0.31230843  0.74919079     0.06090
H1518       H  0.55742246  0.32219639  0.64891045     0.05940
O1519       O  0.95363409  0.49620725  0.49710452    -0.80290
O1520       O  0.63362249  0.49155170  0.00068744    -0.81840
O1521       O  0.54664803  0.45243421  0.94834594    -0.78860
O1522       O  0.54344112  0.45328349  0.55095109    -0.77240
O1523       O  0.54393188  0.49178077  0.58945290    -0.79030
O1524       O  0.54800075  0.49114270  0.90982724    -0.79970
O1525       O  0.59561336  0.45335193  0.00070108    -0.81290
O1526       O  0.99062122  0.45624897  0.49622194    -0.81580
Eu1527     Eu  0.54401097  0.48017333  0.99918812     2.39200
O1528       O  0.57609682  0.01206536  0.53135657    -0.89090
O1529       O  0.51380533  0.01406488  0.96714296    -0.92700
C1530       C  0.96188961  0.46646492  0.49567959     1.01990
C1531       C  0.62474614  0.46199041  0.00101381     1.01810
C1532       C  0.54785498  0.46153373  0.91930163     1.01760
C1533       C  0.54377463  0.46229861  0.58007213     0.99620
H1534       H  0.59103120  0.99893616  0.95463430     0.29360
O1535       O  0.57757595  0.01229721  0.96749723    -1.01480
H1536       H  0.49758087  0.00025867  0.54371581     0.29400
O1537       O  0.51175906  0.01311703  0.53112040    -1.04020
O1538       O  0.63531725  0.09756271  0.99832939    -0.81250
O1539       O  0.95841554  0.10171594  0.99880101    -0.80780
O1540       O  0.60027700  0.04923871  0.91076686    -0.79220
O1541       O  0.59610836  0.04233161  0.58955040    -0.82560
O1542       O  0.99266594  0.04505641  0.58864464    -0.80420
O1543       O  0.99531517  0.04423080  0.90835088    -0.79070
O1544       O  0.54825729  0.13636874  0.94682331    -0.80590
O1545       O  0.54461510  0.13583554  0.55153139    -0.82510
O1546       O  0.54549647  0.09805370  0.90846109    -0.79250
O1547       O  0.54223718  0.09706950  0.58993400    -0.81930
O1548       O  0.63727022  0.04741854  0.94981270    -0.77660
O1549       O  0.95767182  0.04522861  0.94641792    -0.77690
O1550       O  0.95591629  0.05144105  0.55088698    -0.77340
O1551       O  0.63425043  0.04154743  0.55222087    -0.80830
O1552       O  0.59819542  0.13712734  0.99863772    -0.80260
O1553       O  0.99758162  0.13939810  0.99973268    -0.78590
Eu1554     Eu  0.60912532  0.04466299  0.00023196     2.39770
Eu1555     Eu  0.98200329  0.04750288  0.99875703     2.39570
Eu1556     Eu  0.54693923  0.04523719  0.93465896     2.38400
Eu1557     Eu  0.54457793  0.04470713  0.56339626     2.39880
Eu1558     Eu  0.54717266  0.11039959  0.99918646     2.39790
O1559       O  0.51447191  0.07841999  0.53103391    -0.93000
O1560       O  0.57850527  0.07718551  0.96745086    -0.91890
C1561       C  0.62685167  0.12734492  0.99779140     1.02170
C1562       C  0.96847439  0.13103808  0.99968521     1.00890
C1563       C  0.62898328  0.04957403  0.92073227     1.00280
C1564       C  0.62529051  0.04077528  0.58129412     1.02290
C1565       C  0.96398813  0.04893540  0.58006033     1.01210
C1566       C  0.96622768  0.04398680  0.91724062     1.00060
C1567       C  0.54664955  0.12757104  0.91766835     1.00110
C1568       C  0.54261938  0.12654838  0.58055165     1.02730
H1569       H  0.50224896  0.09241483  0.95332079     0.30100
O1570       O  0.51505211  0.07881809  0.96646073    -1.05160
H1571       H  0.59105247  0.09088500  0.54575714     0.32150
O1572       O  0.57792092  0.07779150  0.53242877    -1.07720
C1573       C  0.57226909  0.39187926  0.62905292    -0.02000
C1574       C  0.54710490  0.38759063  0.65071927     0.07680
C1575       C  0.52042764  0.40783507  0.64846649    -0.02120
C1576       C  0.51991626  0.43314087  0.62632202    -0.02120
C1577       C  0.54473552  0.43678813  0.60441688     0.07810
C1578       C  0.57072649  0.41591665  0.60570692    -0.02310
Br1579     Br  0.60573881  0.42212463  0.57711782    -0.00860
Br1580     Br  0.61026840  0.36672448  0.63233479    -0.00930
Br1581     Br  0.48537504  0.46319534  0.62639092    -0.00890
Br1582     Br  0.48359713  0.40019341  0.67439424    -0.00880
C1583       C  0.51419006  0.18509268  0.64315545    -0.02000
C1584       C  0.54234635  0.20166469  0.64982421     0.07680
C1585       C  0.57042921  0.19293026  0.63405380    -0.02120
C1586       C  0.57014111  0.16857248  0.61122783    -0.02120
C1587       C  0.54220331  0.15181135  0.60483771     0.07810
C1588       C  0.51430751  0.15960521  0.62129733    -0.02310
Br1589     Br  0.97633832  0.13536350  0.61407505    -0.00860
Br1590     Br  0.97541199  0.19775728  0.66339245    -0.00930
Br1591     Br  0.60858498  0.15674061  0.58987441    -0.00890
Br1592     Br  0.61011568  0.21235337  0.64533954    -0.00880
C1593       C  0.57436276  0.39266601  0.86630163    -0.02000
C1594       C  0.54765193  0.38888878  0.84732754     0.07680
C1595       C  0.52075724  0.40775855  0.85299801    -0.02120
C1596       C  0.52080335  0.43073243  0.87712527    -0.02120
C1597       C  0.54798363  0.43601490  0.89503017     0.07810
C1598       C  0.57444579  0.41611329  0.89028813    -0.02310
Br1599     Br  0.61041000  0.42026535  0.91697016    -0.00860
Br1600     Br  0.61062981  0.36592978  0.85912538    -0.00930
Br1601     Br  0.98258741  0.45264957  0.88771780    -0.00890
Br1602     Br  0.98346864  0.40189662  0.82781121    -0.00880
C1603       C  0.52288819  0.20331888  0.87295115    -0.02000
C1604       C  0.54385644  0.20291712  0.84674338     0.07680
C1605       C  0.56647332  0.17799175  0.84504442    -0.02120
C1606       C  0.56469479  0.15168231  0.86583902    -0.02120
C1607       C  0.54561841  0.15334998  0.89320448     0.07810
C1608       C  0.52554393  0.18013810  0.89710405    -0.02310
Br1609     Br  0.49931289  0.18426523  0.93426754    -0.00860
Br1610     Br  0.48816254  0.23321874  0.87531108    -0.00930
Br1611     Br  0.58703577  0.11298853  0.85471476    -0.00890
Br1612     Br  0.60220446  0.18066209  0.81660139    -0.00880
C1613       C  0.90664297  0.04441604  0.59827379    -0.02000
C1614       C  0.93884698  0.05004874  0.60545740     0.07680
C1615       C  0.94694023  0.05336072  0.63786379    -0.02120
C1616       C  0.92365617  0.05148297  0.66161942    -0.02120
C1617       C  0.89116333  0.05302409  0.65399562     0.07810
C1618       C  0.88345486  0.04430538  0.62242448    -0.02310
Br1619     Br  0.84451443  0.02202700  0.61269092    -0.00860
Br1620     Br  0.89286343  0.03449891  0.55575547    -0.00930
Br1621     Br  0.93780227  0.03450032  0.70176845    -0.00890
Br1622     Br  0.98974423  0.06050443  0.65214848    -0.00880
C1623       C  0.64163520  0.03822264  0.63939737    -0.02000
C1624       C  0.65009096  0.03912777  0.60681966     0.07680
C1625       C  0.68267274  0.04204912  0.59933849    -0.02120
C1626       C  0.70518106  0.04632118  0.62313513    -0.02120
C1627       C  0.69738150  0.04080553  0.65533421     0.07810
C1628       C  0.66469977  0.04164533  0.66301730    -0.02310
Br1629     Br  0.64964346  0.05850900  0.70300668    -0.00860
Br1630     Br  0.59878639  0.03077735  0.65386855    -0.00930
Br1631     Br  0.74211405  0.07102886  0.61072432    -0.00890
Br1632     Br  0.69927026  0.03921833  0.55692788    -0.00880
C1633       C  0.68694319  0.08289609  0.86030578    -0.02000
C1634       C  0.70079604  0.05440518  0.84926674     0.07680
C1635       C  0.69241117  0.02471387  0.86301055    -0.02120
C1636       C  0.66964474  0.02348759  0.88708284    -0.02120
C1637       C  0.65447313  0.05164961  0.89700080     0.07810
C1638       C  0.66440494  0.08153657  0.88481506    -0.02310
Br1639     Br  0.65004891  0.12044630  0.90423919    -0.00860
Br1640     Br  0.69909286  0.12347866  0.84203631    -0.00930
Br1641     Br  0.66085423  0.48359796  0.90810839    -0.00890
Br1642     Br  0.71187017  0.48546144  0.84858294    -0.00880
C1643       C  0.90902663  0.05002780  0.89980301    -0.02000
C1644       C  0.94081030  0.04162180  0.89258764     0.07680
C1645       C  0.94731438  0.02971218  0.86167572    -0.02120
C1646       C  0.92246881  0.02310379  0.84074924    -0.02120
C1647       C  0.89222697  0.03577393  0.84645753     0.07580
C1648       C  0.88639857  0.05096287  0.87577185    -0.02310
Br1649     Br  0.84907727  0.07672507  0.88292992    -0.00860
Br1650     Br  0.89384915  0.05911161  0.94214525    -0.00930
Br1651     Br  0.92976441  0.49415116  0.80581605    -0.00890
Br1652     Br  0.98955341  0.52342411  0.84550057    -0.00880
C1653       C  0.70256520  0.42248366  0.52094475    -0.02000
C1654       C  0.69763814  0.38981283  0.01404035     0.07680
C1655       C  0.66798979  0.38082136  0.00131614    -0.02120
C1656       C  0.64317633  0.40326136  0.00013518    -0.02120
C1657       C  0.64982218  0.43662168  0.00319783     0.07810
C1658       C  0.68130683  0.44545039  0.50998167    -0.02310
Br1659     Br  0.69940059  0.48582317  0.49684810    -0.00860
Br1660     Br  0.73652538  0.43684683  0.54747838    -0.00930
Br1661     Br  0.60121379  0.38657482  0.99315213    -0.00890
Br1662     Br  0.66129820  0.33974099  0.98096633    -0.00880
C1663       C  0.65110086  0.17712747  0.97389229    -0.02000
C1664       C  0.65192971  0.15199870  0.99641842     0.07680
C1665       C  0.67696059  0.15049939  0.51793811    -0.02120
C1666       C  0.70140753  0.17312144  0.51646791    -0.02120
C1667       C  0.70150813  0.19711747  0.99288111     0.07810
C1668       C  0.67638900  0.19891712  0.97147072    -0.02310
Br1669     Br  0.67698475  0.23077775  0.93833577    -0.00860
Br1670     Br  0.61515787  0.18290453  0.94685601    -0.00930
Br1671     Br  0.73332610  0.17248495  0.54880855    -0.00890
Br1672     Br  0.67618079  0.11974353  0.55198634    -0.00880
C1673       C  0.91892749  0.20076651  0.52873593    -0.02000
C1674       C  0.89434657  0.20021157  0.00674986     0.07680
C1675       C  0.89611376  0.17938682  0.98049411    -0.02120
C1676       C  0.92133691  0.15793316  0.97746363    -0.02120
C1677       C  0.94471605  0.15683769  0.00066848     0.07810
C1678       C  0.94477267  0.18012613  0.52485047    -0.02310
Br1679     Br  0.98127256  0.18656148  0.55055861    -0.00860
Br1680     Br  0.91686342  0.22930211  0.56451860    -0.00930
Br1681     Br  0.92691877  0.13404144  0.93893316    -0.00890
Br1682     Br  0.86526166  0.18149669  0.94727902    -0.00880
C1683       C  0.91680419  0.44138479  0.96651722    -0.02000
C1684       C  0.93647909  0.44221639  0.49321599     0.07680
C1685       C  0.93168243  0.41978162  0.51763704    -0.02120
C1686       C  0.90794265  0.39634259  0.51502612    -0.02120
C1687       C  0.88980491  0.39424514  0.48725674     0.07810
C1688       C  0.89432082  0.41683159  0.96304065    -0.02310
Br1689     Br  0.87042496  0.41337996  0.92467448    -0.00860
Br1690     Br  0.91984581  0.47402899  0.93479093    -0.00930
Br1691     Br  0.89925354  0.36823632  0.55034075    -0.00890
Br1692     Br  0.95638528  0.42243368  0.55550502    -0.00880
C1693       C  0.86542518  0.86900349  0.48464648     0.02970
C1694       C  0.87460379  0.83610052  0.48385682    -0.13170
C1695       C  0.85270628  0.81291015  0.49358253     0.00480
C1696       C  0.82500004  0.82436884  0.00664726    -0.11700
C1697       C  0.81151401  0.85270428  0.99604765     0.02970
C1698       C  0.83277052  0.87696755  0.98699578    -0.11120
H1699       H  0.89837212  0.82920721  0.47760693     0.08560
H1700       H  0.81112133  0.80843117  0.02016449     0.06090
H1701       H  0.82465919  0.90128909  0.98332140     0.05940
C1702       C  0.86937314  0.72467859  0.50766872     0.02970
C1703       C  0.87712739  0.75717639  0.50114839    -0.13170
C1704       C  0.85388144  0.77722926  0.48900007     0.00480
C1705       C  0.82553154  0.76249103  0.98021121    -0.11700
C1706       C  0.81449344  0.73571910  0.99686793     0.02970
C1707       C  0.83726584  0.71540713  0.50978557    -0.11120
H1708       H  0.90077084  0.76620335  0.50440645     0.08560
H1709       H  0.80986407  0.77527464  0.96527727     0.06090
H1710       H  0.83053723  0.69233206  0.51953716     0.05940
C1711       C  0.72574281  0.72258058  0.99408347     0.02970
C1712       C  0.75813081  0.71478791  0.99169298    -0.13170
C1713       C  0.78026254  0.73528958  0.00548362     0.00480
C1714       C  0.76855852  0.76162735  0.02248742    -0.11700
C1715       C  0.73939433  0.77513051  0.01458491     0.02970
C1716       C  0.71690257  0.75432392  0.00207792    -0.11120
H1717       H  0.76563319  0.69246653  0.98099261     0.08560
H1718       H  0.78373277  0.77419287  0.03830071     0.06090
H1719       H  0.69293571  0.76246782  0.99919777     0.05940
C1720       C  0.72449707  0.86656356  0.01496765     0.02970
C1721       C  0.75533567  0.87582689  0.00448213    -0.13170
C1722       C  0.77607055  0.85206300  0.99406439     0.00480
C1723       C  0.76249248  0.82210047  0.98822293    -0.11700
C1724       C  0.73902816  0.81051815  0.00821572     0.02970
C1725       C  0.71920936  0.83347615  0.02209419    -0.11120
H1726       H  0.76263359  0.90053613  0.50229138     0.08560
H1727       H  0.77449369  0.80559624  0.97344130     0.06090
H1728       H  0.69869913  0.82581604  0.03540173     0.05940
C1729       C  0.86788627  0.53665940  0.32107510     0.02970
C1730       C  0.83548176  0.53108504  0.32826673    -0.13170
C1731       C  0.81250387  0.54538752  0.30923100     0.00480
C1732       C  0.82332684  0.56461746  0.28445585    -0.11700
C1733       C  0.85223523  0.55789443  0.26996371     0.02970
C1734       C  0.87593504  0.54662803  0.28981491    -0.11120
H1735       H  0.82851031  0.51827755  0.34944135     0.08560
H1736       H  0.80723659  0.57999443  0.27282145     0.06090
H1737       H  0.89994116  0.54694804  0.28133524     0.05940
C1738       C  0.72484557  0.55464248  0.32406611     0.02970
C1739       C  0.75702638  0.55160058  0.33202334    -0.13170
C1740       C  0.77789546  0.53821887  0.30999155     0.00480
C1741       C  0.76465414  0.52590760  0.28229538    -0.11700
C1742       C  0.73686957  0.53905693  0.27021028     0.02970
C1743       C  0.71566441  0.55213295  0.29210800    -0.11120
H1744       H  0.76525778  0.55838518  0.35518593     0.08560
H1745       H  0.77769741  0.50933582  0.26820867     0.06090
H1746       H  0.69235655  0.55926744  0.28479249     0.05940
C1747       C  0.72279449  0.53798231  0.18047755     0.02970
C1748       C  0.71581608  0.53367710  0.21323760    -0.13170
C1749       C  0.73658053  0.54647697  0.23555931     0.00480
C1750       C  0.76266629  0.56280634  0.22349006    -0.11700
C1751       C  0.77636080  0.55227142  0.19528941     0.02970
C1752       C  0.75565864  0.53913328  0.17311494    -0.11120
H1753       H  0.69532171  0.52056541  0.22118277     0.08560
H1754       H  0.77575929  0.57796539  0.23857245     0.06090
H1755       H  0.76493250  0.52968516  0.15126844     0.05940
C1756       C  0.86593485  0.55907377  0.17923458     0.02970
C1757       C  0.87317608  0.56371640  0.21191632    -0.13170
C1758       C  0.85151894  0.55291308  0.23478873     0.00480
C1759       C  0.82465609  0.53816714  0.22322152    -0.11700
C1760       C  0.81157601  0.54881413  0.19519250     0.02970
C1761       C  0.83303150  0.55980140  0.17222050    -0.11120
H1762       H  0.89459368  0.57523517  0.21937641     0.08560
H1763       H  0.81081147  0.52427209  0.23873886     0.06090
H1764       H  0.82443112  0.56839123  0.14985676     0.05940
C1765       C  0.53991751  0.72588400  0.31964967     0.02970
C1766       C  0.53436622  0.75925200  0.32448096    -0.13170
C1767       C  0.52541774  0.77941368  0.29917429     0.00480
C1768       C  0.52409982  0.76511917  0.26912887    -0.11700
C1769       C  0.53716106  0.73509447  0.26311969     0.02970
C1770       C  0.54206507  0.71435282  0.28830211    -0.11120
H1771       H  0.53687988  0.76912075  0.34786729     0.08560
H1772       H  0.51849907  0.77870099  0.24836937     0.06090
H1773       H  0.54830822  0.68973845  0.28327357     0.05940
C1774       C  0.54671775  0.86549912  0.32128634     0.02970
C1775       C  0.53641348  0.83357560  0.32663263    -0.13170
C1776       C  0.52386066  0.81579996  0.30131085     0.00480
C1777       C  0.51678972  0.83378742  0.27404649    -0.11700
C1778       C  0.53697415  0.85905029  0.26561097     0.02970
C1779       C  0.55091525  0.87636605  0.29002222    -0.11120
H1780       H  0.53782400  0.82338953  0.35004430     0.08560
H1781       H  0.50232589  0.82401140  0.25559546     0.06090
H1782       H  0.56400700  0.89812886  0.28498172     0.05940
C1783       C  0.54416941  0.72489834  0.17616040     0.02970
C1784       C  0.53998422  0.71393778  0.20741974    -0.13170
C1785       C  0.55306014  0.73168631  0.23195139     0.00480
C1786       C  0.57325643  0.75702631  0.22374804    -0.11700
C1787       C  0.56655479  0.77493958  0.19634294     0.02970
C1788       C  0.55385291  0.75716592  0.17105482    -0.11120
H1789       H  0.52736528  0.69189908  0.21249093     0.08560
H1790       H  0.58743792  0.76685544  0.24238693     0.06090
H1791       H  0.55202992  0.76756446  0.14776222     0.05940
C1792       C  0.55040596  0.86461214  0.17764025     0.02970
C1793       C  0.54636471  0.87591323  0.20882055    -0.13170
C1794       C  0.55220740  0.85557845  0.23416290     0.00480
C1795       C  0.56588962  0.82575323  0.22835653    -0.11700
C1796       C  0.56537368  0.81138473  0.19830112     0.02970
C1797       C  0.55763277  0.83162206  0.17265123    -0.11120
H1798       H  0.53807616  0.90002789  0.21337194     0.08560
H1799       H  0.57152672  0.81230877  0.24919122     0.06090
H1800       H  0.55742553  0.82219588  0.14891099     0.05940
O1801       O  0.95363246  0.99620931  0.99709483    -0.80290
O1802       O  0.63362199  0.99155138  0.50068699    -0.81840
O1803       O  0.54664566  0.95243437  0.44834880    -0.78860
O1804       O  0.54343825  0.95328556  0.05095213    -0.77240
O1805       O  0.54392910  0.99177913  0.08945040    -0.79030
O1806       O  0.54799951  0.99114200  0.40982732    -0.79970
O1807       O  0.59560925  0.95335288  0.50070190    -0.81290
O1808       O  0.99061684  0.95624506  0.99621931    -0.81580
Eu1809     Eu  0.54398295  0.98017591  0.49920537     2.39200
O1810       O  0.57610415  0.51206490  0.03135749    -0.89090
O1811       O  0.51380211  0.51406248  0.46714289    -0.92700
C1812       C  0.96188705  0.96646414  0.99567492     1.01990
C1813       C  0.62474458  0.96199019  0.50101332     1.01810
C1814       C  0.54785407  0.96153315  0.41930270     1.01760
C1815       C  0.54377296  0.96229927  0.08007084     0.99620
H1816       H  0.59103452  0.49893565  0.45463205     0.29360
O1817       O  0.57758084  0.51229878  0.46749360    -1.01480
H1818       H  0.49819857  0.50001204  0.04395475     0.29400
O1819       O  0.51198174  0.51314192  0.03109569    -1.04020
O1820       O  0.63531759  0.59756263  0.49833017    -0.81250
O1821       O  0.95841678  0.60171527  0.49880147    -0.80780
O1822       O  0.60027756  0.54923907  0.41076763    -0.79220
O1823       O  0.59611218  0.54233259  0.08955258    -0.82560
O1824       O  0.99267030  0.54505540  0.08864084    -0.80420
O1825       O  0.99531557  0.54423028  0.40835134    -0.79070
O1826       O  0.54825883  0.63636891  0.44682407    -0.80590
O1827       O  0.54461560  0.63583594  0.05153173    -0.82510
O1828       O  0.54549772  0.59805426  0.40846156    -0.79250
O1829       O  0.54223849  0.59707232  0.08993483    -0.81930
O1830       O  0.63727073  0.54741872  0.44981366    -0.77660
O1831       O  0.95767291  0.54522793  0.44641920    -0.77690
O1832       O  0.95591705  0.55143386  0.05088854    -0.77340
O1833       O  0.63425069  0.54154715  0.05222193    -0.80830
O1834       O  0.59819566  0.63712729  0.49863854    -0.80260
O1835       O  0.99758211  0.63939832  0.49973348    -0.78590
Eu1836     Eu  0.60912623  0.54466302  0.50023262     2.39770
Eu1837     Eu  0.98199972  0.54748553  0.49877456     2.39570
Eu1838     Eu  0.54693861  0.54523777  0.43465972     2.38400
Eu1839     Eu  0.54460683  0.54472500  0.06339973     2.39880
Eu1840     Eu  0.54717189  0.61039926  0.49918683     2.39790
O1841       O  0.51446888  0.57842063  0.03103696    -0.93000
O1842       O  0.57850539  0.57718541  0.46745168    -0.91890
C1843       C  0.62685197  0.62734485  0.49779219     1.02170
C1844       C  0.96847509  0.63103816  0.49968565     1.00890
C1845       C  0.62898387  0.54957434  0.42073320     1.00280
C1846       C  0.62529170  0.54077460  0.08129526     1.02290
C1847       C  0.96399041  0.54893188  0.08005945     1.01210
C1848       C  0.96622828  0.54398628  0.41724127     1.00060
C1849       C  0.54665121  0.62757154  0.41766903     1.00110
C1850       C  0.54261947  0.62654952  0.08055196     1.02730
H1851       H  0.50224769  0.59241573  0.45332064     0.30100
O1852       O  0.51504699  0.57881681  0.46646279    -1.05160
H1853       H  0.59105565  0.59088804  0.04575874     0.32150
O1854       O  0.57792594  0.57779596  0.03242810    -1.07720
C1855       C  0.57227244  0.89187925  0.12905224    -0.02000
C1856       C  0.54710890  0.88759041  0.15071930     0.07680
C1857       C  0.52043143  0.90783457  0.14846703    -0.02120
C1858       C  0.51991917  0.93314027  0.12632230    -0.02120
C1859       C  0.54473768  0.93678844  0.10441621     0.07810
C1860       C  0.57072909  0.91591689  0.10570607    -0.02310
Br1861     Br  0.60574081  0.92212500  0.07711661    -0.00860
Br1862     Br  0.61027179  0.86672427  0.13233320    -0.00930
Br1863     Br  0.48537725  0.96319389  0.12639165    -0.00890
Br1864     Br  0.48360165  0.90019274  0.17439587    -0.00880
C1865       C  0.51418995  0.68509355  0.14315502    -0.02000
C1866       C  0.54234633  0.70166527  0.14982420     0.07680
C1867       C  0.57042935  0.69293047  0.13405425    -0.02120
C1868       C  0.57014130  0.66857262  0.11122837    -0.02120
C1869       C  0.54220334  0.65181177  0.10483804     0.07810
C1870       C  0.51430751  0.65960581  0.12129724    -0.02310
Br1871     Br  0.97633899  0.63536295  0.11407580    -0.00860
Br1872     Br  0.97541231  0.69775720  0.16339268    -0.00930
Br1873     Br  0.60858532  0.65674049  0.08987528    -0.00890
Br1874     Br  0.61011593  0.71235301  0.14534058    -0.00880
C1875       C  0.57436258  0.89266534  0.36630256    -0.02000
C1876       C  0.54765212  0.88888812  0.34732800     0.07680
C1877       C  0.52075721  0.90775766  0.35299809    -0.02120
C1878       C  0.52080288  0.93073154  0.37712537    -0.02120
C1879       C  0.54798309  0.93601426  0.39503062     0.07810
C1880       C  0.57444520  0.91611263  0.39028901    -0.02310
Br1881     Br  0.61040883  0.92026459  0.41697179    -0.00860
Br1882     Br  0.61062966  0.86592891  0.35912716    -0.00930
Br1883     Br  0.98258708  0.95264908  0.38771758    -0.00890
Br1884     Br  0.98346870  0.90189630  0.32781085    -0.00880
C1885       C  0.52289134  0.70332079  0.37295310    -0.02000
C1886       C  0.54385831  0.70291812  0.34674429     0.07680
C1887       C  0.56647464  0.67799227  0.34504473    -0.02120
C1888       C  0.56469633  0.65168294  0.36583955    -0.02120
C1889       C  0.54562053  0.65335087  0.39320543     0.07810
C1890       C  0.52554710  0.68013974  0.39710578    -0.02310
Br1891     Br  0.49931730  0.68426768  0.43427014    -0.00860
Br1892     Br  0.48816734  0.73322252  0.37531511    -0.00930
Br1893     Br  0.58703714  0.61298905  0.35471526    -0.00890
Br1894     Br  0.60220484  0.68066190  0.31660045    -0.00880
C1895       C  0.90664278  0.54441810  0.09827253    -0.02000
C1896       C  0.93884757  0.55004833  0.10545666     0.07680
C1897       C  0.94694005  0.55335842  0.13786345    -0.02120
C1898       C  0.92365585  0.55147839  0.16161893    -0.02120
C1899       C  0.89116303  0.55302028  0.15399529     0.07810
C1900       C  0.88345453  0.54430523  0.12242323    -0.02310
Br1901     Br  0.84451374  0.52202860  0.11268708    -0.00860
Br1902     Br  0.89286209  0.53450799  0.05575301    -0.00930
Br1903     Br  0.93780185  0.53449156  0.20176637    -0.00890
Br1904     Br  0.98974356  0.56050243  0.15214897    -0.00880
C1905       C  0.64163481  0.53822100  0.13939854    -0.02000
C1906       C  0.65009100  0.53912644  0.10682087     0.07680
C1907       C  0.68267268  0.54204774  0.09934003    -0.02120
C1908       C  0.70518095  0.54631873  0.12313694    -0.02120
C1909       C  0.69738098  0.54080302  0.15533595     0.07810
C1910       C  0.66469918  0.54164336  0.16301870    -0.02310
Br1911     Br  0.64964256  0.55850770  0.20300766    -0.00860
Br1912     Br  0.59878591  0.53077539  0.15386930    -0.00930
Br1913     Br  0.74211536  0.57102452  0.11072664    -0.00890
Br1914     Br  0.69927024  0.53921816  0.05692933    -0.00880
C1915       C  0.68694479  0.58289647  0.36030771    -0.02000
C1916       C  0.70079735  0.55440549  0.34926846     0.07680
C1917       C  0.69241188  0.52471411  0.36301175    -0.02120
C1918       C  0.66964521  0.52348784  0.38708377    -0.02120
C1919       C  0.65447388  0.55164993  0.39700193     0.07810
C1920       C  0.66440617  0.58153692  0.38481665    -0.02310
Br1921     Br  0.65005001  0.62044659  0.40424076    -0.00860
Br1922     Br  0.69909535  0.62347913  0.34203903    -0.00930
Br1923     Br  0.66085249  0.98359702  0.40810620    -0.00890
Br1924     Br  0.71186936  0.98546085  0.34858158    -0.00880
C1925       C  0.90902718  0.55002709  0.39980323    -0.02000
C1926       C  0.94081076  0.54162044  0.39258835     0.07680
C1927       C  0.94731468  0.52970860  0.36167726    -0.02120
C1928       C  0.92246899  0.52309833  0.34075154    -0.02120
C1929       C  0.89222722  0.53576903  0.34645893     0.07580
C1930       C  0.88639909  0.55096055  0.37577203    -0.02310
Br1931     Br  0.84907841  0.57672423  0.38292809    -0.00860
Br1932     Br  0.89384995  0.55911412  0.44214481    -0.00930
Br1933     Br  0.92976417  0.99415104  0.30581546    -0.00890
Br1934     Br  0.98955311  0.02342352  0.34550035    -0.00880
C1935       C  0.70256540  0.92248432  0.02094393    -0.02000
C1936       C  0.69763793  0.88981248  0.51403948     0.07680
C1937       C  0.66798933  0.88082100  0.50131588    -0.02120
C1938       C  0.64317585  0.90326101  0.50013532    -0.02120
C1939       C  0.64982164  0.93662134  0.50319727     0.07810
C1940       C  0.68130696  0.94545080  0.00998037    -0.02310
Br1941     Br  0.69940056  0.98582341  0.99684604    -0.00860
Br1942     Br  0.73652542  0.93684816  0.04747740    -0.00930
Br1943     Br  0.60121310  0.88657434  0.49315390    -0.00890
Br1944     Br  0.66129729  0.83974058  0.48096630    -0.00880
C1945       C  0.65110131  0.67712701  0.47389256    -0.02000
C1946       C  0.65193003  0.65199855  0.49641902     0.07680
C1947       C  0.67696115  0.65049959  0.01793912    -0.02120
C1948       C  0.70140804  0.67312170  0.01646889    -0.02120
C1949       C  0.70150872  0.69711687  0.49288101     0.07810
C1950       C  0.67638969  0.69891626  0.47147050    -0.02310
Br1951     Br  0.67698594  0.73077597  0.43833468    -0.00860
Br1952     Br  0.61515807  0.68290438  0.44685668    -0.00930
Br1953     Br  0.73332712  0.67248479  0.04880902    -0.00890
Br1954     Br  0.67618165  0.61974353  0.05198719    -0.00880
C1955       C  0.91892769  0.70076696  0.02873531    -0.02000
C1956       C  0.89434689  0.70021150  0.50675127     0.07680
C1957       C  0.89611432  0.67938733  0.48049508    -0.02120
C1958       C  0.92133756  0.65793381  0.47746429    -0.02120
C1959       C  0.94471657  0.65683789  0.50066920     0.07810
C1960       C  0.94477278  0.68012632  0.02485033    -0.02310
Br1961     Br  0.98127223  0.68656133  0.05055919    -0.00860
Br1962     Br  0.91686356  0.72930318  0.06451751    -0.00930
Br1963     Br  0.92692000  0.63404322  0.43893325    -0.00890
Br1964     Br  0.86526246  0.68149784  0.44727982    -0.00880
C1965       C  0.91680361  0.94138416  0.46651688    -0.02000
C1966       C  0.93647829  0.94221609  0.99321452     0.07680
C1967       C  0.93168220  0.91978181  0.01763626    -0.02120
C1968       C  0.90794252  0.89634278  0.01502535    -0.02120
C1969       C  0.88980490  0.89424533  0.98725585     0.07810
C1970       C  0.89432065  0.91683100  0.46304049    -0.02310
Br1971     Br  0.87042523  0.91337894  0.42467418    -0.00860
Br1972     Br  0.91984536  0.97402850  0.43479051    -0.00930
Br1973     Br  0.89925331  0.86823646  0.05033985    -0.00890
Br1974     Br  0.95638481  0.92243412  0.05550443    -0.00880
C1975       C  0.86542422  0.86900574  0.98464674     0.02970
C1976       C  0.87460236  0.83610270  0.98385411    -0.13170
C1977       C  0.85270455  0.81291182  0.99357794     0.00480
C1978       C  0.82500106  0.82436807  0.50665009    -0.11700
C1979       C  0.81151496  0.85270275  0.49604802     0.02970
C1980       C  0.83277143  0.87696521  0.48699432    -0.11120
H1981       H  0.89837060  0.82920959  0.97760360     0.08560
H1982       H  0.81112209  0.80843133  0.52016804     0.06090
H1983       H  0.82465996  0.90128634  0.48331762     0.05940
C1984       C  0.86937320  0.72468188  0.00766415     0.02970
C1985       C  0.87712649  0.75717938  0.00114194    -0.13170
C1986       C  0.85387973  0.77723128  0.98899446     0.00480
C1987       C  0.82553361  0.76248963  0.48021501    -0.11700
C1988       C  0.81449408  0.73571779  0.49687079     0.02970
C1989       C  0.83726618  0.71540984  0.00978310    -0.11120
H1990       H  0.90077006  0.76620699  0.00439752     0.08560
H1991       H  0.80986760  0.77527336  0.46527969     0.06090
H1992       H  0.83053856  0.69233493  0.01953576     0.05940
C1993       C  0.72574346  0.72257860  0.49408638     0.02970
C1994       C  0.75813152  0.71478636  0.49169604    -0.13170
C1995       C  0.78026285  0.73528917  0.50548541     0.00480
C1996       C  0.76855821  0.76162754  0.52248798    -0.11700
C1997       C  0.73939388  0.77513009  0.51458460     0.02970
C1998       C  0.71690252  0.75432234  0.50207873    -0.11120
H1999       H  0.76563420  0.69246438  0.48099711     0.08560
H2000       H  0.78373181  0.77419352  0.53830142     0.06090
H2001       H  0.69293551  0.76246556  0.49919801     0.05940
C2002       C  0.72449532  0.86656370  0.51495942     0.02970
C2003       C  0.75533524  0.87582615  0.50447665    -0.13170
C2004       C  0.77607145  0.85206132  0.49406321     0.00480
C2005       C  0.76249403  0.82209856  0.48822249    -0.11700
C2006       C  0.73902763  0.81051752  0.50821331     0.02970
C2007       C  0.71920670  0.83347656  0.52208734    -0.11120
H2008       H  0.76263378  0.90053700  0.00229774     0.08560
H2009       H  0.77449650  0.80559344  0.47344303     0.06090
H2010       H  0.69869498  0.82581733  0.53539306     0.05940
C2011       C  0.86788741  0.53659317  0.82107393     0.02970
C2012       C  0.83548079  0.53104376  0.82827449    -0.13170
C2013       C  0.81250888  0.54534385  0.80923016     0.00480
C2014       C  0.82333922  0.56454136  0.78443449    -0.11700
C2015       C  0.85224149  0.55779020  0.76994586     0.02970
C2016       C  0.87593765  0.54652662  0.78980312    -0.11120
H2017       H  0.82850470  0.51826098  0.84946200     0.08560
H2018       H  0.80725980  0.57992321  0.77279280     0.06090
H2019       H  0.89994273  0.54682675  0.78132010     0.05940
C2020       C  0.72485708  0.55465740  0.82407701     0.02970
C2021       C  0.75703818  0.55160497  0.83203038    -0.13170
C2022       C  0.77789638  0.53819960  0.81000206     0.00480
C2023       C  0.76464448  0.52587931  0.78231560    -0.11700
C2024       C  0.73686288  0.53903278  0.77022936     0.02970
C2025       C  0.71566870  0.55213344  0.79212242    -0.11120
H2026       H  0.76527654  0.55839560  0.85518872     0.08560
H2027       H  0.77768334  0.50930535  0.76822932     0.06090
H2028       H  0.69236171  0.55927157  0.78480749     0.05940
C2029       C  0.72277671  0.53790111  0.68050073     0.02970
C2030       C  0.71579507  0.53362819  0.71326420    -0.13170
C2031       C  0.73657154  0.54642888  0.73557475     0.00480
C2032       C  0.76267004  0.56272597  0.72349230    -0.11700
C2033       C  0.77635220  0.55215953  0.69529964     0.02970
C2034       C  0.75564086  0.53901498  0.67313825    -0.11120
H2035       H  0.69529139  0.52053874  0.72122043     0.08560
H2036       H  0.77577321  0.57789083  0.73855902     0.06090
H2037       H  0.76490611  0.52954330  0.65129782     0.05940
C2038       C  0.86590684  0.55899462  0.67921699     0.02970
C2039       C  0.87316333  0.56361906  0.71189687    -0.13170
C2040       C  0.85152072  0.55279500  0.73477390     0.00480
C2041       C  0.82465728  0.53803983  0.72321342    -0.11700
C2042       C  0.81156370  0.54869373  0.69519167     0.02970
C2043       C  0.83300186  0.55971481  0.67222200    -0.11120
H2044       H  0.89458916  0.57512943  0.71934990     0.08560
H2045       H  0.81082287  0.52413350  0.73873299     0.06090
H2046       H  0.82438293  0.56834745  0.64988237     0.05940
C2047       C  0.53992000  0.72589364  0.81964895     0.02970
C2048       C  0.53436664  0.75926138  0.82448050    -0.13170
C2049       C  0.52541923  0.77942313  0.79917332     0.00480
C2050       C  0.52410502  0.76512927  0.76912754    -0.11700
C2051       C  0.53716818  0.73510535  0.76311913     0.02970
C2052       C  0.54207039  0.71436331  0.78830138    -0.11120
H2053       H  0.53687790  0.76912987  0.84786720     0.08560
H2054       H  0.51850526  0.77871123  0.74836784     0.06090
H2055       H  0.54831461  0.68974923  0.78327274     0.05940
C2056       C  0.54671498  0.86550895  0.82128544     0.02970
C2057       C  0.53641186  0.83358519  0.82663170    -0.13170
C2058       C  0.52385964  0.81580926  0.80131001     0.00480
C2059       C  0.51678782  0.83379653  0.77404563    -0.11700
C2060       C  0.53697122  0.85906042  0.76561005     0.02970
C2061       C  0.55091181  0.87637641  0.79002138    -0.11120
H2062       H  0.53782327  0.82339892  0.85004322     0.08560
H2063       H  0.50232466  0.82401941  0.75559456     0.06090
H2064       H  0.56400295  0.89813966  0.78498104     0.05940
C2065       C  0.54417677  0.72490666  0.67616128     0.02970
C2066       C  0.53999472  0.71394609  0.70742106    -0.13170
C2067       C  0.55306866  0.73169707  0.73195175     0.00480
C2068       C  0.57326250  0.75703850  0.72374723    -0.11700
C2069       C  0.56655743  0.77495087  0.69634255     0.02970
C2070       C  0.55385516  0.75717593  0.67105532    -0.11120
H2071       H  0.52737976  0.69190541  0.71249372     0.08560
H2072       H  0.58744391  0.76686933  0.74238535     0.06090
H2073       H  0.55202869  0.76757457  0.64776306     0.05940
C2074       C  0.55040604  0.86462259  0.67763944     0.02970
C2075       C  0.54636387  0.87592397  0.70881964    -0.13170
C2076       C  0.55220530  0.85558902  0.73416224     0.00480
C2077       C  0.56588837  0.82576420  0.72835632    -0.11700
C2078       C  0.56537387  0.81139575  0.69830089     0.02970
C2079       C  0.55763283  0.83163253  0.67265089    -0.11120
H2080       H  0.53807580  0.90003883  0.71337078     0.08560
H2081       H  0.57152499  0.81231981  0.74919119     0.06090
H2082       H  0.55742616  0.82220602  0.64891077     0.05940
O2083       O  0.95362695  0.99621235  0.49709441    -0.80290
O2084       O  0.63362420  0.99154948  0.00069770    -0.81840
O2085       O  0.54664821  0.95243416  0.94835430    -0.78860
O2086       O  0.54343646  0.95328723  0.55094443    -0.77240
O2087       O  0.54393706  0.99178098  0.58944220    -0.79030
O2088       O  0.54800070  0.99114285  0.90983368    -0.79970
O2089       O  0.59561131  0.95335114  0.00071018    -0.81290
O2090       O  0.99061307  0.95624952  0.49621176    -0.81580
Eu2091     Eu  0.54398528  0.98017342  0.99921242     2.39200
O2092       O  0.57610309  0.51206461  0.53136527    -0.89090
O2093       O  0.51379879  0.51406911  0.96714160    -0.92700
C2094       C  0.96188276  0.96646768  0.49567054     1.01990
C2095       C  0.62474652  0.96198842  0.00102328     1.01810
C2096       C  0.54785542  0.96153410  0.91930839     1.01760
C2097       C  0.54377596  0.96230130  0.58006290     0.99620
H2098       H  0.59103266  0.49893764  0.95462369     0.29360
O2099       O  0.57757911  0.51230050  0.96748567    -1.01480
H2100       H  0.49819785  0.50001090  0.54396009     0.29400
O2101       O  0.51198259  0.51313948  0.53110141    -1.04020
O2102       O  0.63531397  0.59756700  0.99832102    -0.81250
O2103       O  0.95841484  0.60172259  0.99879361    -0.80780
O2104       O  0.60027620  0.54924666  0.91076213    -0.79220
O2105       O  0.59610689  0.54232171  0.58956216    -0.82560
O2106       O  0.99266439  0.54508048  0.58864447    -0.80420
O2107       O  0.99531368  0.54422499  0.90834661    -0.79070
O2108       O  0.54825631  0.63636995  0.94681664    -0.80590
O2109       O  0.54462523  0.63583362  0.55154131    -0.82510
O2110       O  0.54549421  0.59805612  0.90845351    -0.79250
O2111       O  0.54224794  0.59707044  0.58994481    -0.81930
O2112       O  0.63726913  0.54742756  0.94980838    -0.77660
O2113       O  0.95767085  0.54522122  0.94641570    -0.77690
O2114       O  0.95592372  0.55142638  0.55087935    -0.77340
O2115       O  0.63424672  0.54153732  0.55223337    -0.80830
O2116       O  0.59819147  0.63713097  0.99863082    -0.80260
O2117       O  0.99758302  0.63940246  0.99971933    -0.78590
Eu2118     Eu  0.60912450  0.54466582  0.00022442     2.39770
Eu2119     Eu  0.98199295  0.54748977  0.99877525     2.39570
Eu2120     Eu  0.54693581  0.54523929  0.93465324     2.38400
Eu2121     Eu  0.54460443  0.54472431  0.56340736     2.39880
Eu2122     Eu  0.54716905  0.61040007  0.99917886     2.39790
O2123       O  0.51446994  0.57841805  0.53104017    -0.93000
O2124       O  0.57850298  0.57718751  0.96744351    -0.91890
C2125       C  0.62684798  0.62734922  0.99778389     1.02170
C2126       C  0.96847563  0.63104494  0.99967305     1.00890
C2127       C  0.62898247  0.54958455  0.92072835     1.00280
C2128       C  0.62528634  0.54076116  0.58130629     1.02290
C2129       C  0.96398592  0.54894496  0.58005294     1.01210
C2130       C  0.96622690  0.54397683  0.91723752     1.00060
C2131       C  0.54664830  0.62757338  0.91766152     1.00110
C2132       C  0.54263147  0.62654755  0.58056194     1.02730
H2133       H  0.50224309  0.59241526  0.95331528     0.30100
O2134       O  0.51504196  0.57881658  0.96645810    -1.05160
H2135       H  0.59105728  0.59088438  0.54576751     0.32150
O2136       O  0.57792702  0.57779336  0.53243642    -1.07720
C2137       C  0.57227275  0.89188427  0.62904858    -0.02000
C2138       C  0.54711004  0.88759984  0.65071763     0.07680
C2139       C  0.52043377  0.90784560  0.64846457    -0.02120
C2140       C  0.51992231  0.93314882  0.62631728    -0.02120
C2141       C  0.54473941  0.93679167  0.60440882     0.07810
C2142       C  0.57072899  0.91591804  0.60569876    -0.02310
Br2143     Br  0.60573755  0.92211774  0.57710359    -0.00860
Br2144     Br  0.61027215  0.86672964  0.63233180    -0.00930
Br2145     Br  0.48538352  0.96320655  0.62638627    -0.00890
Br2146     Br  0.48360421  0.90020943  0.67439529    -0.00880
C2147       C  0.51420322  0.68508284  0.64317275    -0.02000
C2148       C  0.54235368  0.70167252  0.64982552     0.07680
C2149       C  0.57043413  0.69295074  0.63404329    -0.02120
C2150       C  0.57014785  0.66859013  0.61121991    -0.02120
C2151       C  0.54221633  0.65181041  0.60484781     0.07810
C2152       C  0.51432560  0.65958791  0.62132326    -0.02310
Br2153     Br  0.97637137  0.63530987  0.61413792    -0.00860
Br2154     Br  0.97542547  0.69773343  0.66341877    -0.00930
Br2155     Br  0.60858794  0.65677723  0.58984884    -0.00890
Br2156     Br  0.61011713  0.71239303  0.64531031    -0.00880
C2157       C  0.57435765  0.89266490  0.86630858    -0.02000
C2158       C  0.54765047  0.88889704  0.84732758     0.07680
C2159       C  0.52075974  0.90777448  0.85299209    -0.02120
C2160       C  0.52080665  0.93074748  0.87711999    -0.02120
C2161       C  0.54798290  0.93601743  0.89503486     0.07810
C2162       C  0.57444087  0.91610923  0.89029763    -0.02310
Br2163     Br  0.61040172  0.92025243  0.91698601    -0.00860
Br2164     Br  0.61062044  0.86592144  0.85913703    -0.00930
Br2165     Br  0.98259799  0.95268715  0.88769474    -0.00890
Br2166     Br  0.98347469  0.90192464  0.82779692    -0.00880
C2167       C  0.52289082  0.70332655  0.87294991    -0.02000
C2168       C  0.54385986  0.70292659  0.84674282     0.07680
C2169       C  0.56647694  0.67800132  0.84504317    -0.02120
C2170       C  0.56469721  0.65168978  0.86583534    -0.02120
C2171       C  0.54561831  0.65335424  0.89319916     0.07810
C2172       C  0.52554454  0.68014280  0.89710034    -0.02310
Br2173     Br  0.49931238  0.68426751  0.93426313    -0.00860
Br2174     Br  0.48816725  0.73322878  0.87531269    -0.00930
Br2175     Br  0.58704140  0.61299802  0.85471120    -0.00890
Br2176     Br  0.60220986  0.68067500  0.81660267    -0.00880
C2177       C  0.90661445  0.54451869  0.59822344    -0.02000
C2178       C  0.93882896  0.55006354  0.60543724     0.07680
C2179       C  0.94690998  0.55328914  0.63785551    -0.02120
C2180       C  0.92361424  0.55137737  0.66159553    -0.02120
C2181       C  0.89112741  0.55297801  0.65396391     0.07810
C2182       C  0.88341867  0.54436424  0.62236565    -0.02310
Br2183     Br  0.84446009  0.52215702  0.61254887    -0.00860
Br2184     Br  0.89280706  0.53482096  0.55566381    -0.00930
Br2185     Br  0.93771961  0.53427392  0.70171071    -0.00890
Br2186     Br  0.98970837  0.56037563  0.65218199    -0.00880
C2187       C  0.64162376  0.53819704  0.63941076    -0.02000
C2188       C  0.65008332  0.53910180  0.60683375     0.07680
C2189       C  0.68266721  0.54200744  0.59935596    -0.02120
C2190       C  0.70517753  0.54625161  0.62315658    -0.02120
C2191       C  0.69736886  0.54073919  0.65535513     0.07810
C2192       C  0.66468715  0.54160524  0.66303327    -0.02310
Br2193     Br  0.64963667  0.55849197  0.70301521    -0.00860
Br2194     Br  0.59876991  0.53077656  0.65387940    -0.00930
Br2195     Br  0.74214454  0.57091087  0.61075116    -0.00890
Br2196     Br  0.69926208  0.53919877  0.55694220    -0.00880
C2197       C  0.68695706  0.58291259  0.86031890    -0.02000
C2198       C  0.70081151  0.55442209  0.84928101     0.07680
C2199       C  0.69242230  0.52472972  0.86301964    -0.02120
C2200       C  0.66964919  0.52350181  0.88708477    -0.02120
C2201       C  0.65447414  0.55166281  0.89699965     0.07810
C2202       C  0.66441082  0.58155105  0.88482072    -0.02310
Br2203     Br  0.65004912  0.62045899  0.90424384    -0.00860
Br2204     Br  0.69911497  0.62349664  0.84205814    -0.00930
Br2205     Br  0.66085398  0.98358506  0.90811121    -0.00890
Br2206     Br  0.71185694  0.98544556  0.84857193    -0.00880
C2207       C  0.90902911  0.55001633  0.89979205    -0.02000
C2208       C  0.94081124  0.54160063  0.89258449     0.07680
C2209       C  0.94731493  0.52966664  0.86168176    -0.02120
C2210       C  0.92246854  0.52303989  0.84076196    -0.02120
C2211       C  0.89222876  0.53572085  0.84645805     0.07580
C2212       C  0.88640381  0.55093943  0.87575842    -0.02310
Br2213     Br  0.84909604  0.57672866  0.88289117    -0.00860
Br2214     Br  0.89384948  0.55912561  0.94212741    -0.00930
Br2215     Br  0.92976881  0.99425550  0.80577161    -0.00890
Br2216     Br  0.98955320  0.02347848  0.84549166    -0.00880
C2217       C  0.70256369  0.92248513  0.52093457    -0.02000
C2218       C  0.69763934  0.88981152  0.01405002     0.07680
C2219       C  0.66799008  0.88081944  0.00132834    -0.02120
C2220       C  0.64317657  0.90325919  0.00014906    -0.02120
C2221       C  0.64982304  0.93661962  0.00320810     0.07810
C2222       C  0.68130520  0.94545225  0.50997191    -0.02310
Br2223     Br  0.69939818  0.98582759  0.49684507    -0.00860
Br2224     Br  0.73652302  0.93684773  0.54746963    -0.00930
Br2225     Br  0.60121306  0.88657165  0.99317383    -0.00890
Br2226     Br  0.66129695  0.83973939  0.98097836    -0.00880
C2227       C  0.65109783  0.67713373  0.97388774    -0.02000
C2228       C  0.65192602  0.65200344  0.99641225     0.07680
C2229       C  0.67696534  0.65049629  0.51794590    -0.02120
C2230       C  0.70141059  0.67312028  0.51647517    -0.02120
C2231       C  0.70150718  0.69711961  0.99287611     0.07810
C2232       C  0.67638746  0.69892182  0.97146644    -0.02310
Br2233     Br  0.67698447  0.73078372  0.93833273    -0.00860
Br2234     Br  0.61515312  0.68291614  0.94685482    -0.00930
Br2235     Br  0.73332873  0.67248785  0.54881623    -0.00890
Br2236     Br  0.67618970  0.61973822  0.55199294    -0.00880
C2237       C  0.91891920  0.70075478  0.52875090    -0.02000
C2238       C  0.89434760  0.70021578  0.00674440     0.07680
C2239       C  0.89611043  0.67938882  0.98048994    -0.02120
C2240       C  0.92133503  0.65793768  0.97745538    -0.02120
C2241       C  0.94471992  0.65684729  0.00065428     0.07810
C2242       C  0.94476148  0.68010887  0.52487280    -0.02310
Br2243     Br  0.98124433  0.68651771  0.55061050    -0.00860
Br2244     Br  0.91684736  0.72928766  0.56453526    -0.00930
Br2245     Br  0.92691491  0.63404863  0.93892332    -0.00890
Br2246     Br  0.86525134  0.68149295  0.94728095    -0.00880
C2247       C  0.91680761  0.94138383  0.96651996    -0.02000
C2248       C  0.93647484  0.94221856  0.49321094     0.07680
C2249       C  0.93168017  0.91978517  0.51763362    -0.02120
C2250       C  0.90794211  0.89634433  0.51502367    -0.02120
C2251       C  0.88980523  0.89424381  0.48725391     0.07810
C2252       C  0.89432190  0.91683327  0.96304333    -0.02310
Br2253     Br  0.87042516  0.91338546  0.92467759    -0.00860
Br2254     Br  0.91985695  0.97402578  0.93479131    -0.00930
Br2255     Br  0.89925362  0.86824028  0.55034000    -0.00890
Br2256     Br  0.95638157  0.92244225  0.55550228    -0.00880
loop_ 
_geom_bond_atom_site_label_1 
_geom_bond_atom_site_label_2 
_geom_bond_distance 
_geom_bond_site_symmetry_2 
_ccdc_geom_bond_type 
C1            C2   1.426       .  A
C1          C288   1.431       .  A
C1          C559   1.480       .  S
C2            C3   1.400       .  A
C2            H7   1.083       .  S
C3          C286   1.385       .  A
C3           C12   1.500       .  S
C4            C5   1.389   1_554  A
C4          C285   1.385   1_554  A
C4            H8   1.054       .  S
C5            C6   1.406       .  A
C5           C30   1.511       .  S
C6          C283   1.431       .  A
C6            H9   1.082       .  S
C10          C11   1.419       .  A
C10          C15   1.421       .  A
C10         C264   1.474       .  S
C11          C12   1.397       .  A
C11          H16   1.083       .  S
C12         C295   1.405       .  A
C13          C14   1.398       .  A
C13         C294   1.405       .  A
C13          H17   1.066       .  S
C14         C297   1.401   1_556  A
C14          C21   1.499   1_556  S
C15         C296   1.401       .  A
C15          H18   1.083       .  S
C19          C20   1.419       .  A
C19          C24   1.417   1_556  A
C19         C539   1.479       .  S
C20          C21   1.401   1_556  A
C20          H25   1.083       .  S
C21          C22   1.404       .  A
C22          C23   1.406       .  A
C22          H26   1.071       .  S
C23          C24   1.398       .  A
C23          C32   1.498       .  S
C24          H27   1.083   1_554  S
C28          C29   1.434       .  A
C28          C33   1.428       .  A
C28         C526   1.500       .  S
C29          C30   1.397   1_554  A
C29         H316   1.078       .  S
C30          C31   1.397       .  A
C31          C32   1.390   1_556  A
C31          H35   1.060       .  S
C32          C33   1.404       .  A
C33          H36   1.083       .  S
H34         C311   1.078       .  S
C37          C38   1.428       .  A
C37          C42   1.428       .  A
C37         C237   1.500       .  S
C38          C39   1.405       .  A
C38          H43   1.083       .  S
C39          C40   1.395       .  A
C39          C48   1.501       .  S
C40          C41   1.400       .  A
C40          H44   1.062       .  S
C41          C42   1.399       .  A
C41          C66   1.507       .  S
C42          H45   1.080       .  S
C46          C47   1.418       .  A
C46          C51   1.417       .  A
C46         C224   1.474       .  S
C47          C48   1.401       .  A
C47          H52   1.083       .  S
C48          C49   1.404       .  A
C49          C50   1.404       .  A
C49          H53   1.067       .  S
C50          C51   1.402       .  A
C50          C57   1.501       .  S
C51          H54   1.083       .  S
C55          C56   1.430       .  A
C55          C60   1.431       .  A
C55         C217   1.528       .  S
C56          C57   1.404       .  A
C56          H61   1.079       .  S
C57          C58   1.394       .  A
C58          C59   1.398       .  A
C58          H62   1.060       .  S
C59          C60   1.404       .  A
C59          C68   1.505       .  S
C60          H63   1.080       .  S
C64          C65   1.435       .  A
C64          C69   1.433       .  A
C64         C207   1.532       .  S
C65          C66   1.406       .  A
C65          H70   1.078       .  S
C66          C67   1.389       .  A
C67          C68   1.389       .  A
C67          H71   1.052       .  S
C68          C69   1.405       .  A
C69          H72   1.080       .  S
C73          C74   1.425       .  A
C73          C78   1.417       .  A
C73         C194   1.505       .  S
C74          C75   1.417       .  A
C74          H79   1.080       .  S
C75          C76   1.409       .  A
C75          C84   1.520       .  S
C76          C77   1.393       .  A
C76          H80   1.074       .  S
C77          C78   1.390       .  A
C77          C93   1.488       .  S
C78          H81   1.081       .  S
C82          C83   1.417       .  A
C82          C87   1.410       .  A
C82         C184   1.475       .  S
C83          C84   1.413       .  A
C83          H88   1.081       .  S
C84          C85   1.411       .  A
C85          C86   1.401       .  A
C85          H89   1.079       .  S
C86          C87   1.398       .  A
C86         C102   1.486       .  S
C87          H90   1.083       .  S
C91          C92   1.411       .  A
C91          C96   1.421       .  A
C91         C174   1.482       .  S
C92          C93   1.396       .  A
C92          H97   1.083       .  S
C93          C94   1.401       .  A
C94          C95   1.411       .  A
C94          H98   1.079       .  S
C95          C96   1.414       .  A
C95         C104   1.522       .  S
C96          H99   1.081       .  S
C100        C101   1.414       .  A
C100        C105   1.425       .  A
C100        C164   1.496       .  S
C101        C102   1.392       .  A
C101        H106   1.083       .  S
C102        C103   1.395       .  A
C103        C104   1.409       .  A
C103        H107   1.074       .  S
C104        C105   1.416       .  A
C105        H108   1.081       .  S
O109        C120   1.290       .  A
O109       Eu991   2.452       .  S
O110        C121   1.287       .  A
O110       Eu708   2.448       .  S
O111        C122   1.289       .  A
O111       Eu117   2.450       .  S
O112        C123   1.292       .  A
O112       Eu399   2.463   1_554  S
O113        C123   1.292       .  A
O113       Eu711   2.465       .  S
O114        C122   1.297       .  A
O114       Eu710   2.489       .  S
O115        C121   1.290       .  A
O115       Eu117   2.466       .  S
O116        C120   1.295       .  A
O116      Eu1527   2.482       .  S
Eu117       O394   2.463       .  S
Eu117      O1526   2.482   1_455  S
Eu117       O973   2.358       .  S
Eu117       O683   2.349       .  S
Eu117       O964   2.348       .  S
Eu117       O689   2.365       .  S
O118       Eu147   2.341       .  S
O118       Eu963   2.348   1_544  S
O118       Eu426   2.349       .  S
O119       Eu146   2.351       .  S
O119       Eu681   2.349   1_545  S
O119      Eu1273   2.357   1_455  S
C120        C274   1.482       .  S
C121        C247   1.506       .  S
C122        C187   1.481       .  S
C123        C167   1.481       .  S
H124        O125   0.966   1_565  S
O125       Eu146   2.356       .  S
O125       Eu144   2.360       .  S
O125       Eu681   2.366   1_545  S
H126        O127   0.964   1_655  S
O127       Eu147   2.362       .  S
O127       Eu963   2.362   1_544  S
O127      Eu1555   2.359   1_454  S
O128        C151   1.293       .  A
O128       Eu144   2.468       .  S
O129        C152   1.294       .  A
O129       Eu145   2.473       .  S
O130        C153   1.295       .  A
O130       Eu146   2.483       .  S
O131        C154   1.289       .  A
O131       Eu147   2.466       .  S
O132        C155   1.286       .  A
O132      Eu1275   2.447       .  S
O133        C156   1.291       .  A
O133      Eu1274   2.470       .  S
O134        C157   1.292       .  A
O134       Eu148   2.469       .  S
O135        C158   1.292       .  A
O135       Eu430   2.464   1_554  S
O136        C157   1.292       .  A
O136       Eu146   2.464       .  S
O137        C158   1.290       .  A
O137       Eu147   2.458       .  S
O138        C153   1.288       .  A
O138       Eu144   2.445       .  S
O139        C156   1.288       .  A
O139       Eu145   2.458       .  S
O140        C155   1.290       .  A
O140       Eu427   2.472   1_554  S
O141        C154   1.288       .  A
O141       Eu426   2.461       .  S
O142        C151   1.286       .  A
O142       Eu148   2.437       .  S
O143        C152   1.285       .  A
O143      Eu1276   2.433       .  S
Eu144       O674   2.448   1_545  S
Eu144       O423   2.461       .  S
Eu144       O150   2.344       .  S
Eu144       O400   2.349       .  S
Eu144       O444   2.349       .  S
Eu145       O955   2.453   1_545  S
Eu145       O422   2.472       .  S
Eu145      O1247   2.357       .  S
Eu145      O1537   2.359       .  S
Eu145      O1559   2.338       .  S
Eu145      O1288   2.348       .  S
Eu146       O678   2.489   1_545  S
Eu146      O1261   2.470   1_455  S
Eu146       O160   2.367       .  S
Eu146       O150   2.352       .  S
Eu147       O677   2.464   1_545  S
Eu147      O1260   2.447   1_455  S
Eu147       O149   2.350       .  S
Eu147       O162   2.365       .  S
Eu148       O417   2.464       .  S
Eu148      O1271   2.433   1_455  S
Eu148       O160   2.356       .  S
Eu148       O150   2.343       .  S
Eu148       O431   2.344       .  S
Eu148       O444   2.361       .  S
O149      Eu1555   2.338   1_454  S
O149       Eu430   2.344   1_554  S
C151        C254   1.480       .  S
C152        C267   1.477       .  S
C153        C227   1.476       .  S
C154        C214   1.519       .  S
C155        C204   1.513       .  S
C156        C234   1.513       .  S
C157        C197   1.493       .  S
C158        C177   1.474       .  S
H159        O160   0.966       .  S
O160      Eu1273   2.348   1_455  S
H161        O162   0.966       .  S
O162       Eu426   2.349       .  S
O162       Eu430   2.361   1_554  S
C163        C164   1.416       .  A
C163        C168   1.409       .  A
C163       Br170   1.934       .  S
C164        C165   1.419       .  A
C165        C166   1.411       .  A
C165       Br172   1.933   1_455  S
C166        C167   1.409       .  A
C166       Br171   1.932   1_455  S
C167        C168   1.409       .  A
C168       Br169   1.930       .  S
C173        C174   1.412       .  A
C173        C178   1.411       .  A
C173      Br1308   1.929   1_455  S
C174        C175   1.413       .  A
C175        C176   1.404       .  A
C175       Br182   1.934       .  S
C176        C177   1.405       .  A
C176       Br181   1.929       .  S
C177        C178   1.411       .  A
C178      Br1307   1.929   1_455  S
Br179      C1306   1.929       .  S
Br180      C1301   1.929       .  S
C183        C184   1.406       .  A
C183        C188   1.411       .  A
C183       Br190   1.927       .  S
C184        C185   1.409       .  A
C185        C186   1.402       .  A
C185      Br1320   1.934   1_455  S
C186        C187   1.405       .  A
C186      Br1319   1.917   1_455  S
C187        C188   1.413       .  A
C188       Br189   1.917       .  S
Br191      C1314   1.917       .  S
Br192      C1313   1.934       .  S
C193        C194   1.420       .  A
C193        C198   1.412       .  A
C193       Br200   1.936   1_455  S
C194        C195   1.419       .  A
C195        C196   1.407       .  A
C195       Br202   1.936       .  S
C196        C197   1.413       .  A
C196       Br201   1.930       .  S
C197        C198   1.416       .  A
C198       Br199   1.933   1_455  S
C203        C204   1.425       .  A
C203        C208   1.417       .  A
C203       Br210   1.945       .  S
C204        C205   1.426       .  A
C205        C206   1.409       .  A
C205       Br212   1.945       .  S
C206        C207   1.423       .  A
C206       Br211   1.943       .  S
C207        C208   1.428       .  A
C208       Br209   1.944       .  S
C213        C214   1.426       .  A
C213        C218   1.414       .  A
C213       Br220   1.943       .  S
C214        C215   1.424       .  A
C215        C216   1.407       .  A
C215       Br222   1.931       .  S
C216        C217   1.421       .  A
C216       Br221   1.945       .  S
C217        C218   1.426       .  A
C218       Br219   1.942       .  S
C223        C224   1.406       .  A
C223        C228   1.410       .  A
C223       Br230   1.927       .  S
C224        C225   1.410       .  A
C225        C226   1.403       .  A
C225       Br796   1.933   1_545  S
C226        C227   1.404       .  A
C226       Br795   1.920   1_545  S
C227        C228   1.410       .  A
C228       Br229   1.918       .  S
Br231       C790   1.920       .  S
Br232       C789   1.933       .  S
C233        C234   1.428       .  A
C233        C238   1.407       .  A
C233       Br240   1.942       .  S
C234        C235   1.428       .  A
C235        C236   1.412       .  A
C235       Br806   1.937       .  S
C236        C237   1.411       .  A
C236       Br805   1.934   1_545  S
C237        C238   1.416       .  A
C238       Br239   1.940       .  S
Br241       C800   1.934       .  S
Br242       C799   1.937       .  S
C243        C248   1.399       .  A
C243        C526   1.408       .  A
C243       Br250   1.932       .  S
C244        C245   1.425       .  A
C244        C525   1.408       .  A
C244        C310   1.500       .  S
C245        C246   1.413       .  A
C245       Br252   1.939       .  S
C246        C247   1.424       .  A
C246       Br251   1.939       .  S
C247        C530   1.419       .  A
C248        C529   1.419       .  A
C248       Br249   1.928   1_554  S
C253        C254   1.417       .  A
C253        C258   1.409       .  A
C253       Br260   1.933       .  S
C254        C537   1.409       .  A
C255        C256   1.403       .  A
C255        C536   1.409   1_554  A
C255       Br262   1.929       .  S
C256        C539   1.413   1_554  A
C256       Br261   1.937       .  S
C257        C258   1.409       .  A
C257        C538   1.413       .  A
C257        C301   1.479       .  S
C258       Br259   1.931       .  S
C263        C268   1.406       .  A
C263        C546   1.406       .  A
C263       Br270   1.931       .  S
C264        C265   1.414       .  A
C264        C545   1.406       .  A
C265        C266   1.403       .  A
C265       Br272   1.934       .  S
C266        C267   1.405       .  A
C266       Br271   1.928       .  S
C267        C550   1.413       .  A
C268        C549   1.413       .  A
C268       Br269   1.922       .  S
C273        C278   1.407       .  A
C273        C556   1.413       .  A
C273       Br280   1.915       .  S
C274        C275   1.407   1_556  A
C274        C555   1.413       .  A
C275        C276   1.408       .  A
C275       Br282   1.929       .  S
C276        C277   1.415   1_554  A
C276       Br281   1.933       .  S
C277        C560   1.404       .  A
C277        C283   1.480       .  S
C278        C559   1.404       .  A
C278       Br279   1.930       .  S
C283        C284   1.426       .  A
C284        C285   1.400       .  A
C284        H289   1.083       .  S
C285        C294   1.500       .  S
C286        C287   1.389       .  A
C286        H290   1.054       .  S
C287        C288   1.406       .  A
C287        C312   1.511       .  S
C288        H291   1.082       .  S
C292        C293   1.419       .  A
C292        C297   1.421       .  A
C292        C546   1.474       .  S
C293        C294   1.397   1_554  A
C293        H298   1.083       .  S
C295        C296   1.398       .  A
C295        H299   1.066       .  S
C296        C303   1.499       .  S
C297        H300   1.083       .  S
C301        C302   1.419       .  A
C301        C306   1.417       .  A
C302        C303   1.401       .  A
C302        H307   1.083       .  S
C303        C304   1.404       .  A
C304        C305   1.406       .  A
C304        H308   1.071       .  S
C305        C306   1.398       .  A
C305        C314   1.498       .  S
C306        H309   1.083       .  S
C310        C311   1.434       .  A
C310        C315   1.428       .  A
C311        C312   1.397       .  A
C312        C313   1.397       .  A
C313        C314   1.390       .  A
C313        H317   1.060       .  S
C314        C315   1.404       .  A
C315        H318   1.083       .  S
C319        C320   1.428       .  A
C319        C324   1.428       .  A
C319        C519   1.500       .  S
C320        C321   1.405       .  A
C320        H325   1.083       .  S
C321        C322   1.395       .  A
C321        C330   1.501       .  S
C322        C323   1.400       .  A
C322        H326   1.062       .  S
C323        C324   1.399       .  A
C323        C348   1.507       .  S
C324        H327   1.080       .  S
C328        C329   1.418       .  A
C328        C333   1.417       .  A
C328        C506   1.474       .  S
C329        C330   1.401       .  A
C329        H334   1.083       .  S
C330        C331   1.404       .  A
C331        C332   1.404       .  A
C331        H335   1.067       .  S
C332        C333   1.402       .  A
C332        C339   1.501       .  S
C333        H336   1.083       .  S
C337        C338   1.430       .  A
C337        C342   1.431       .  A
C337        C499   1.528       .  S
C338        C339   1.404       .  A
C338        H343   1.079       .  S
C339        C340   1.394       .  A
C340        C341   1.398       .  A
C340        H344   1.060       .  S
C341        C342   1.404       .  A
C341        C350   1.505       .  S
C342        H345   1.080       .  S
C346        C347   1.435       .  A
C346        C351   1.433       .  A
C346        C489   1.532       .  S
C347        C348   1.406       .  A
C347        H352   1.078       .  S
C348        C349   1.389       .  A
C349        C350   1.389       .  A
C349        H353   1.052       .  S
C350        C351   1.405       .  A
C351        H354   1.080       .  S
C355        C356   1.425       .  A
C355        C360   1.417       .  A
C355        C476   1.505       .  S
C356        C357   1.417       .  A
C356        H361   1.080       .  S
C357        C358   1.409       .  A
C357        C366   1.520       .  S
C358        C359   1.393       .  A
C358        H362   1.074       .  S
C359        C360   1.390       .  A
C359        C375   1.488       .  S
C360        H363   1.081       .  S
C364        C365   1.417       .  A
C364        C369   1.410       .  A
C364        C466   1.475       .  S
C365        C366   1.413       .  A
C365        H370   1.081       .  S
C366        C367   1.411       .  A
C367        C368   1.401       .  A
C367        H371   1.079       .  S
C368        C369   1.398       .  A
C368        C384   1.486       .  S
C369        H372   1.083       .  S
C373        C374   1.411       .  A
C373        C378   1.421       .  A
C373        C456   1.482       .  S
C374        C375   1.396       .  A
C374        H379   1.083       .  S
C375        C376   1.401       .  A
C376        C377   1.411       .  A
C376        H380   1.079       .  S
C377        C378   1.414       .  A
C377        C386   1.522       .  S
C378        H381   1.081       .  S
C382        C383   1.414       .  A
C382        C387   1.425       .  A
C382        C446   1.496       .  S
C383        C384   1.392       .  A
C383        H388   1.083       .  S
C384        C385   1.395       .  A
C385        C386   1.409       .  A
C385        H389   1.074       .  S
C386        C387   1.416       .  A
C387        H390   1.081       .  S
O391        C402   1.290       .  A
O391       Eu709   2.452       .  S
O392        C403   1.287       .  A
O392       Eu990   2.448       .  S
O393        C404   1.289       .  A
O393       Eu399   2.450       .  S
O394        C405   1.292       .  A
O395        C405   1.292       .  A
O395       Eu993   2.465       .  S
O396        C404   1.297       .  A
O396       Eu992   2.489       .  S
O397        C403   1.290       .  A
O397       Eu399   2.466   1_554  S
O398        C402   1.295       .  A
O398      Eu1245   2.482       .  S
Eu399      O1244   2.482   1_455  S
Eu399       O691   2.358   1_556  S
Eu399       O965   2.349       .  S
Eu399       O682   2.348   1_556  S
Eu399       O971   2.365       .  S
O400       Eu681   2.348   1_545  S
O400       Eu429   2.341       .  S
O401       Eu963   2.349   1_545  S
O401      Eu1555   2.357   1_455  S
O401       Eu428   2.351       .  S
C402        C556   1.482       .  S
C403        C529   1.506       .  S
C404        C469   1.481       .  S
C405        C449   1.481       .  S
H406        O407   0.966   1_565  S
O407       Eu963   2.366   1_545  S
O407       Eu428   2.356       .  S
O407       Eu426   2.360   1_556  S
H408        O409   0.964   1_655  S
O409       Eu681   2.362   1_545  S
O409      Eu1273   2.359   1_455  S
O409       Eu429   2.362       .  S
O410        C433   1.293       .  A
O410       Eu426   2.468   1_556  S
O411        C434   1.294       .  A
O411       Eu427   2.473       .  S
O412        C435   1.295       .  A
O412       Eu428   2.483       .  S
O413        C436   1.289       .  A
O413       Eu429   2.466       .  S
O414        C437   1.286       .  A
O414      Eu1557   2.447       .  S
O415        C438   1.291       .  A
O415      Eu1556   2.471       .  S
O416        C439   1.292       .  A
O416       Eu430   2.469       .  S
O417        C440   1.292       .  A
O418        C439   1.292       .  A
O418       Eu428   2.464       .  S
O419        C440   1.290       .  A
O419       Eu429   2.458       .  S
O420        C435   1.288       .  A
O420       Eu426   2.445   1_556  S
O421        C438   1.288       .  A
O421       Eu427   2.458       .  S
O422        C437   1.291       .  A
O423        C436   1.288       .  A
O424        C433   1.286       .  A
O424       Eu430   2.437       .  S
O425        C434   1.285       .  A
O425      Eu1558   2.433       .  S
Eu426       O956   2.448   1_545  S
Eu426       O432   2.344   1_554  S
Eu427       O673   2.453   1_545  S
Eu427      O1529   2.357       .  S
Eu427      O1255   2.359   1_556  S
Eu427      O1277   2.338   1_556  S
Eu427      O1570   2.348       .  S
Eu428       O960   2.489   1_545  S
Eu428      O1543   2.471   1_455  S
Eu428       O442   2.367       .  S
Eu428       O432   2.352       .  S
Eu429       O959   2.464   1_545  S
Eu429      O1542   2.447   1_455  S
Eu429       O431   2.350       .  S
Eu429       O444   2.365       .  S
Eu430      O1553   2.433   1_455  S
Eu430       O442   2.356       .  S
Eu430       O432   2.343       .  S
O431      Eu1273   2.338   1_455  S
C433        C536   1.480       .  S
C434        C549   1.477   1_556  S
C435        C509   1.476       .  S
C436        C496   1.519       .  S
C437        C486   1.513       .  S
C438        C516   1.513       .  S
C439        C479   1.493       .  S
C440        C459   1.474       .  S
H441        O442   0.966       .  S
O442      Eu1555   2.348   1_455  S
H443        O444   0.966       .  S
C445        C446   1.416       .  A
C445        C450   1.409       .  A
C445       Br452   1.934       .  S
C446        C447   1.419       .  A
C447        C448   1.411       .  A
C447       Br454   1.933   1_455  S
C448        C449   1.409       .  A
C448       Br453   1.932   1_455  S
C449        C450   1.409       .  A
C450       Br451   1.930       .  S
C455        C456   1.412       .  A
C455        C460   1.411       .  A
C455      Br1590   1.929   1_455  S
C456        C457   1.413       .  A
C457        C458   1.404       .  A
C457       Br464   1.934       .  S
C458        C459   1.405       .  A
C458       Br463   1.929       .  S
C459        C460   1.411       .  A
C460      Br1589   1.929   1_455  S
Br461      C1588   1.929       .  S
Br462      C1583   1.929       .  S
C465        C466   1.406       .  A
C465        C470   1.411       .  A
C465       Br472   1.927       .  S
C466        C467   1.409       .  A
C467        C468   1.402       .  A
C467      Br1602   1.934   1_455  S
C468        C469   1.405       .  A
C468      Br1601   1.917   1_455  S
C469        C470   1.413       .  A
C470       Br471   1.917       .  S
Br473      C1596   1.917       .  S
Br474      C1595   1.934       .  S
C475        C476   1.420       .  A
C475        C480   1.412       .  A
C475       Br482   1.936   1_455  S
C476        C477   1.419       .  A
C477        C478   1.407       .  A
C477       Br484   1.936       .  S
C478        C479   1.413       .  A
C478       Br483   1.930       .  S
C479        C480   1.416       .  A
C480       Br481   1.933   1_455  S
C485        C486   1.424       .  A
C485        C490   1.417       .  A
C485       Br492   1.945       .  S
C486        C487   1.426       .  A
C487        C488   1.410       .  A
C487       Br494   1.945       .  S
C488        C489   1.423       .  A
C488       Br493   1.943       .  S
C489        C490   1.428       .  A
C490       Br491   1.944       .  S
C495        C496   1.426       .  A
C495        C500   1.414       .  A
C495       Br502   1.943       .  S
C496        C497   1.424       .  A
C497        C498   1.407       .  A
C497       Br504   1.931       .  S
C498        C499   1.421       .  A
C498       Br503   1.945       .  S
C499        C500   1.426       .  A
C500       Br501   1.942       .  S
C505        C506   1.406       .  A
C505        C510   1.410       .  A
C505       Br512   1.927       .  S
C506        C507   1.410       .  A
C507        C508   1.403       .  A
C507      Br1078   1.933   1_545  S
C508        C509   1.404       .  A
C508      Br1077   1.920   1_545  S
C509        C510   1.410       .  A
C510       Br511   1.918       .  S
Br513      C1072   1.920       .  S
Br514      C1071   1.933       .  S
C515        C516   1.428       .  A
C515        C520   1.407       .  A
C515       Br522   1.942       .  S
C516        C517   1.428       .  A
C517        C518   1.412       .  A
C517      Br1088   1.937       .  S
C518        C519   1.411       .  A
C518      Br1087   1.934   1_545  S
C519        C520   1.416       .  A
C520       Br521   1.940       .  S
Br523      C1082   1.934       .  S
Br524      C1081   1.937       .  S
C525        C530   1.399       .  A
C525       Br532   1.932       .  S
C526        C527   1.425       .  A
C527        C528   1.413       .  A
C527       Br534   1.939   1_554  S
C528        C529   1.424       .  A
C528       Br533   1.939   1_554  S
C530       Br531   1.928       .  S
C535        C536   1.417       .  A
C535        C540   1.409       .  A
C535       Br542   1.933       .  S
C537        C538   1.403       .  A
C537       Br544   1.929       .  S
C538       Br543   1.937       .  S
C539        C540   1.409       .  A
C540       Br541   1.931       .  S
C545        C550   1.406       .  A
C545       Br552   1.931       .  S
C546        C547   1.414   1_554  A
C547        C548   1.403       .  A
C547       Br554   1.934       .  S
C548        C549   1.405   1_556  A
C548       Br553   1.928       .  S
C550       Br551   1.922       .  S
C555        C560   1.407       .  A
C555       Br562   1.915       .  S
C556        C557   1.407       .  A
C557        C558   1.408       .  A
C557       Br564   1.929       .  S
C558        C559   1.415       .  A
C558       Br563   1.933       .  S
C560       Br561   1.930       .  S
C565        C566   1.426       .  A
C565        C852   1.431       .  A
C565       C1123   1.480       .  S
C566        C567   1.400       .  A
C566        H571   1.083       .  S
C567        C850   1.385       .  A
C567        C576   1.500       .  S
C568        C849   1.385   1_554  A
C568        C569   1.389   1_554  A
C568        H572   1.054       .  S
C569        C570   1.406       .  A
C569        C594   1.511       .  S
C570        C847   1.431       .  A
C570        H573   1.082       .  S
C574        C575   1.419       .  A
C574        C579   1.421       .  A
C574        C828   1.474       .  S
C575        C576   1.397       .  A
C575        H580   1.083       .  S
C576        C859   1.405       .  A
C577        C858   1.405       .  A
C577        C578   1.398       .  A
C577        H581   1.066       .  S
C578        C861   1.401   1_556  A
C578        C585   1.499   1_556  S
C579        C860   1.401       .  A
C579        H582   1.083       .  S
C583        C584   1.419       .  A
C583        C588   1.417   1_556  A
C583       C1103   1.479       .  S
C584        C585   1.401   1_556  A
C584        H589   1.083       .  S
C585        C586   1.404       .  A
C586        C587   1.406       .  A
C586        H590   1.071       .  S
C587        C588   1.398       .  A
C587        C596   1.498       .  S
C588        H591   1.083   1_554  S
C592        C593   1.434       .  A
C592        C597   1.428       .  A
C592       C1090   1.500       .  S
C593        C594   1.397   1_554  A
C593        H880   1.078       .  S
C594        C595   1.397       .  A
C595        C596   1.390   1_556  A
C595        H599   1.060       .  S
C596        C597   1.404       .  A
C597        H600   1.083       .  S
H598        C875   1.078       .  S
C601        C602   1.428       .  A
C601        C606   1.428       .  A
C601        C801   1.500       .  S
C602        C603   1.405       .  A
C602        H607   1.083       .  S
C603        C604   1.395       .  A
C603        C612   1.501       .  S
C604        C605   1.400       .  A
C604        H608   1.062       .  S
C605        C606   1.399       .  A
C605        C630   1.507       .  S
C606        H609   1.080       .  S
C610        C611   1.418       .  A
C610        C615   1.417       .  A
C610        C788   1.474       .  S
C611        C612   1.401       .  A
C611        H616   1.083       .  S
C612        C613   1.404       .  A
C613        C614   1.404       .  A
C613        H617   1.067       .  S
C614        C615   1.402       .  A
C614        C621   1.501       .  S
C615        H618   1.083       .  S
C619        C620   1.430       .  A
C619        C624   1.431       .  A
C619        C781   1.528       .  S
C620        C621   1.404       .  A
C620        H625   1.079       .  S
C621        C622   1.394       .  A
C622        C623   1.398       .  A
C622        H626   1.060       .  S
C623        C624   1.404       .  A
C623        C632   1.505       .  S
C624        H627   1.080       .  S
C628        C629   1.435       .  A
C628        C633   1.433       .  A
C628        C771   1.532       .  S
C629        C630   1.406       .  A
C629        H634   1.078       .  S
C630        C631   1.389       .  A
C631        C632   1.389       .  A
C631        H635   1.052       .  S
C632        C633   1.405       .  A
C633        H636   1.080       .  S
C637        C638   1.425       .  A
C637        C642   1.417       .  A
C637        C758   1.505       .  S
C638        C639   1.417       .  A
C638        H643   1.080       .  S
C639        C640   1.409       .  A
C639        C648   1.520       .  S
C640        C641   1.393       .  A
C640        H644   1.074       .  S
C641        C642   1.390       .  A
C641        C657   1.488       .  S
C642        H645   1.081       .  S
C646        C647   1.417       .  A
C646        C651   1.410       .  A
C646        C748   1.475       .  S
C647        C648   1.413       .  A
C647        H652   1.081       .  S
C648        C649   1.411       .  A
C649        C650   1.401       .  A
C649        H653   1.079       .  S
C650        C651   1.398       .  A
C650        C666   1.486       .  S
C651        H654   1.083       .  S
C655        C656   1.411       .  A
C655        C660   1.421       .  A
C655        C738   1.481       .  S
C656        C657   1.396       .  A
C656        H661   1.083       .  S
C657        C658   1.401       .  A
C658        C659   1.411       .  A
C658        H662   1.079       .  S
C659        C660   1.414       .  A
C659        C668   1.522       .  S
C660        H663   1.081       .  S
C664        C665   1.414       .  A
C664        C669   1.425       .  A
C664        C728   1.496       .  S
C665        C666   1.392       .  A
C665        H670   1.083       .  S
C666        C667   1.395       .  A
C667        C668   1.409       .  A
C667        H671   1.074       .  S
C668        C669   1.416       .  A
C669        H672   1.081       .  S
O673        C684   1.290       .  A
O674        C685   1.287       .  A
O675        C686   1.289       .  A
O675       Eu681   2.451       .  S
O676        C687   1.292       .  A
O676       Eu963   2.462   1_554  S
O677        C687   1.292       .  A
O678        C686   1.297       .  A
O679        C685   1.290       .  A
O679       Eu681   2.467       .  S
O680        C684   1.295       .  A
O680      Eu2091   2.481       .  S
Eu681       O958   2.462       .  S
Eu681      O2090   2.481   1_455  S
O682       Eu711   2.341       .  S
O682       Eu990   2.349       .  S
O683      Eu1837   2.357   1_455  S
O683       Eu710   2.351       .  S
C684        C838   1.482       .  S
C685        C811   1.506       .  S
C686        C751   1.481       .  S
C687        C731   1.481       .  S
H688        O689   0.966       .  S
O689       Eu710   2.356       .  S
O689       Eu708   2.360       .  S
H690        O691   0.966   1_655  S
O691      Eu2119   2.362   1_454  S
O691       Eu711   2.358       .  S
O692        C715   1.293       .  A
O692       Eu708   2.468       .  S
O693        C716   1.294       .  A
O693       Eu709   2.474       .  S
O694        C717   1.295       .  A
O694       Eu710   2.483       .  S
O695        C718   1.289       .  A
O695       Eu711   2.465       .  S
O696        C719   1.286       .  A
O696      Eu1839   2.448       .  S
O697        C720   1.291       .  A
O697      Eu1838   2.471       .  S
O698        C721   1.292       .  A
O698       Eu712   2.469       .  S
O699        C722   1.292       .  A
O699       Eu994   2.464   1_554  S
O700        C721   1.292       .  A
O700       Eu710   2.464       .  S
O701        C722   1.290       .  A
O701       Eu711   2.458       .  S
O702        C717   1.288       .  A
O702       Eu708   2.445       .  S
O703        C720   1.288       .  A
O703       Eu709   2.458       .  S
O704        C719   1.290       .  A
O704       Eu991   2.471   1_554  S
O705        C718   1.288       .  A
O705       Eu990   2.461       .  S
O706        C715   1.286       .  A
O706       Eu712   2.437       .  S
O707        C716   1.285       .  A
O707      Eu1840   2.433       .  S
Eu708       O987   2.461       .  S
Eu708       O964   2.349       .  S
Eu708      O1008   2.349       .  S
Eu708       O714   2.344       .  S
Eu709       O986   2.471       .  S
Eu709      O1811   2.357       .  S
Eu709      O2101   2.362       .  S
Eu709      O2123   2.338       .  S
Eu709      O1852   2.348       .  S
Eu710      O1825   2.471   1_455  S
Eu710       O724   2.367       .  S
Eu710       O714   2.352       .  S
Eu711      O1824   2.448   1_455  S
Eu711       O713   2.350       .  S
Eu711       O726   2.364       .  S
Eu712       O981   2.464       .  S
Eu712      O1835   2.433   1_455  S
Eu712       O995   2.344       .  S
Eu712       O724   2.356       .  S
Eu712      O1008   2.361       .  S
Eu712       O714   2.343       .  S
O713      Eu2119   2.338   1_454  S
O713       Eu994   2.344   1_554  S
C715        C818   1.480       .  S
C716        C831   1.477       .  S
C717        C791   1.476       .  S
C718        C778   1.519       .  S
C719        C768   1.513       .  S
C720        C798   1.513       .  S
C721        C761   1.493       .  S
C722        C741   1.474       .  S
H723        O724   0.966       .  S
O724      Eu1837   2.348   1_455  S
H725        O726   0.966       .  S
O726       Eu990   2.349       .  S
O726       Eu994   2.361   1_554  S
C727        C728   1.416       .  A
C727        C732   1.409       .  A
C727       Br734   1.934       .  S
C728        C729   1.419       .  A
C729        C730   1.411       .  A
C729       Br736   1.933   1_455  S
C730        C731   1.409       .  A
C730       Br735   1.932   1_455  S
C731        C732   1.409       .  A
C732       Br733   1.930       .  S
C737        C738   1.412       .  A
C737        C742   1.411       .  A
C737      Br1872   1.929   1_455  S
C738        C739   1.413       .  A
C739        C740   1.404       .  A
C739       Br746   1.934       .  S
C740        C741   1.405       .  A
C740       Br745   1.929       .  S
C741        C742   1.411       .  A
C742      Br1871   1.929   1_455  S
Br743      C1870   1.929       .  S
Br744      C1865   1.929       .  S
C747        C748   1.406       .  A
C747        C752   1.411       .  A
C747       Br754   1.927       .  S
C748        C749   1.409       .  A
C749        C750   1.402       .  A
C749      Br1884   1.934   1_455  S
C750        C751   1.405       .  A
C750      Br1883   1.917   1_455  S
C751        C752   1.413       .  A
C752       Br753   1.917       .  S
Br755      C1878   1.917       .  S
Br756      C1877   1.934       .  S
C757        C758   1.420       .  A
C757        C762   1.412       .  A
C757       Br764   1.936   1_455  S
C758        C759   1.419       .  A
C759        C760   1.407       .  A
C759       Br766   1.936       .  S
C760        C761   1.413       .  A
C760       Br765   1.930       .  S
C761        C762   1.416       .  A
C762       Br763   1.933   1_455  S
C767        C768   1.424       .  A
C767        C772   1.417       .  A
C767       Br774   1.945       .  S
C768        C769   1.426       .  A
C769        C770   1.410       .  A
C769       Br776   1.945       .  S
C770        C771   1.423       .  A
C770       Br775   1.943       .  S
C771        C772   1.428       .  A
C772       Br773   1.944       .  S
C777        C778   1.426       .  A
C777        C782   1.414       .  A
C777       Br784   1.943       .  S
C778        C779   1.424       .  A
C779        C780   1.407       .  A
C779       Br786   1.931       .  S
C780        C781   1.421       .  A
C780       Br785   1.945       .  S
C781        C782   1.426       .  A
C782       Br783   1.942       .  S
C787        C788   1.406       .  A
C787        C792   1.410       .  A
C787       Br794   1.927       .  S
C788        C789   1.410       .  A
C789        C790   1.403       .  A
C790        C791   1.404       .  A
C791        C792   1.410       .  A
C792       Br793   1.918       .  S
C797        C798   1.428       .  A
C797        C802   1.407       .  A
C797       Br804   1.942       .  S
C798        C799   1.428       .  A
C799        C800   1.412       .  A
C800        C801   1.411       .  A
C801        C802   1.416       .  A
C802       Br803   1.940       .  S
C807       C1090   1.408       .  A
C807        C812   1.399       .  A
C807       Br814   1.932       .  S
C808       C1089   1.408       .  A
C808        C809   1.425       .  A
C808        C874   1.500       .  S
C809        C810   1.413       .  A
C809       Br816   1.939       .  S
C810        C811   1.424       .  A
C810       Br815   1.939       .  S
C811       C1094   1.419       .  A
C812       C1093   1.419       .  A
C812       Br813   1.928   1_554  S
C817        C818   1.417       .  A
C817        C822   1.409       .  A
C817       Br824   1.933       .  S
C818       C1101   1.409       .  A
C819       C1100   1.409   1_554  A
C819        C820   1.403       .  A
C819       Br826   1.929       .  S
C820       C1103   1.413   1_554  A
C820       Br825   1.937       .  S
C821       C1102   1.413       .  A
C821        C822   1.409       .  A
C821        C865   1.479       .  S
C822       Br823   1.931       .  S
C827       C1110   1.406       .  A
C827        C832   1.406       .  A
C827       Br834   1.931       .  S
C828       C1109   1.406       .  A
C828        C829   1.414       .  A
C829        C830   1.403       .  A
C829       Br836   1.934       .  S
C830        C831   1.405       .  A
C830       Br835   1.928       .  S
C831       C1114   1.413       .  A
C832       C1113   1.413       .  A
C832       Br833   1.922       .  S
C837       C1120   1.413       .  A
C837        C842   1.407       .  A
C837       Br844   1.915       .  S
C838       C1119   1.413       .  A
C838        C839   1.407   1_556  A
C839        C840   1.408       .  A
C839       Br846   1.929       .  S
C840        C841   1.415   1_554  A
C840       Br845   1.933       .  S
C841       C1124   1.404       .  A
C841        C847   1.480       .  S
C842       C1123   1.404       .  A
C842       Br843   1.930       .  S
C847        C848   1.426       .  A
C848        C849   1.400       .  A
C848        H853   1.083       .  S
C849        C858   1.500       .  S
C850        C851   1.389       .  A
C850        H854   1.054       .  S
C851        C852   1.406       .  A
C851        C876   1.511       .  S
C852        H855   1.082       .  S
C856        C857   1.419       .  A
C856        C861   1.421       .  A
C856       C1110   1.474       .  S
C857        C858   1.397   1_554  A
C857        H862   1.083       .  S
C859        C860   1.398       .  A
C859        H863   1.066       .  S
C860        C867   1.499       .  S
C861        H864   1.083       .  S
C865        C866   1.419       .  A
C865        C870   1.417       .  A
C866        C867   1.401       .  A
C866        H871   1.083       .  S
C867        C868   1.404       .  A
C868        C869   1.406       .  A
C868        H872   1.071       .  S
C869        C870   1.398       .  A
C869        C878   1.498       .  S
C870        H873   1.083       .  S
C874        C875   1.434       .  A
C874        C879   1.428       .  A
C875        C876   1.397       .  A
C876        C877   1.397       .  A
C877        C878   1.390       .  A
C877        H881   1.060       .  S
C878        C879   1.404       .  A
C879        H882   1.083       .  S
C883        C884   1.428       .  A
C883        C888   1.428       .  A
C883       C1083   1.500       .  S
C884        C885   1.405       .  A
C884        H889   1.083       .  S
C885        C886   1.395       .  A
C885        C894   1.501       .  S
C886        C887   1.400       .  A
C886        H890   1.062       .  S
C887        C888   1.399       .  A
C887        C912   1.507       .  S
C888        H891   1.080       .  S
C892        C893   1.418       .  A
C892        C897   1.417       .  A
C892       C1070   1.474       .  S
C893        C894   1.401       .  A
C893        H898   1.083       .  S
C894        C895   1.404       .  A
C895        C896   1.404       .  A
C895        H899   1.067       .  S
C896        C897   1.402       .  A
C896        C903   1.501       .  S
C897        H900   1.083       .  S
C901        C902   1.430       .  A
C901        C906   1.431       .  A
C901       C1063   1.528       .  S
C902        C903   1.404       .  A
C902        H907   1.079       .  S
C903        C904   1.394       .  A
C904        C905   1.398       .  A
C904        H908   1.060       .  S
C905        C906   1.404       .  A
C905        C914   1.505       .  S
C906        H909   1.080       .  S
C910        C911   1.435       .  A
C910        C915   1.433       .  A
C910       C1053   1.532       .  S
C911        C912   1.406       .  A
C911        H916   1.078       .  S
C912        C913   1.389       .  A
C913        C914   1.389       .  A
C913        H917   1.052       .  S
C914        C915   1.405       .  A
C915        H918   1.080       .  S
C919        C920   1.425       .  A
C919        C924   1.417       .  A
C919       C1040   1.505       .  S
C920        C921   1.417       .  A
C920        H925   1.080       .  S
C921        C922   1.409       .  A
C921        C930   1.520       .  S
C922        C923   1.393       .  A
C922        H926   1.074       .  S
C923        C924   1.390       .  A
C923        C939   1.488       .  S
C924        H927   1.081       .  S
C928        C929   1.417       .  A
C928        C933   1.410       .  A
C928       C1030   1.475       .  S
C929        C930   1.413       .  A
C929        H934   1.081       .  S
C930        C931   1.411       .  A
C931        C932   1.401       .  A
C931        H935   1.079       .  S
C932        C933   1.398       .  A
C932        C948   1.486       .  S
C933        H936   1.083       .  S
C937        C938   1.411       .  A
C937        C942   1.421       .  A
C937       C1020   1.482       .  S
C938        C939   1.396       .  A
C938        H943   1.083       .  S
C939        C940   1.401       .  A
C940        C941   1.411       .  A
C940        H944   1.079       .  S
C941        C942   1.414       .  A
C941        C950   1.522       .  S
C942        H945   1.081       .  S
C946        C947   1.414       .  A
C946        C951   1.425       .  A
C946       C1010   1.496       .  S
C947        C948   1.392       .  A
C947        H952   1.083       .  S
C948        C949   1.395       .  A
C949        C950   1.409       .  A
C949        H953   1.074       .  S
C950        C951   1.416       .  A
C951        H954   1.081       .  S
O955        C966   1.290       .  A
O956        C967   1.287       .  A
O957        C968   1.289       .  A
O957       Eu963   2.451       .  S
O958        C969   1.292       .  A
O959        C969   1.292       .  A
O960        C968   1.297       .  A
O961        C967   1.290       .  A
O961       Eu963   2.467   1_554  S
O962        C966   1.295       .  A
O962      Eu1809   2.481       .  S
Eu963      O1808   2.481   1_455  S
O964       Eu993   2.341       .  S
O965      Eu2119   2.357   1_455  S
O965       Eu992   2.351       .  S
C966       C1120   1.482       .  S
C967       C1093   1.506       .  S
C968       C1033   1.481       .  S
C969       C1013   1.481       .  S
H970        O971   0.966       .  S
O971       Eu992   2.356       .  S
O971       Eu990   2.360   1_556  S
H972        O973   0.966   1_655  S
O973      Eu1837   2.362   1_455  S
O973       Eu993   2.358       .  S
O974        C997   1.293       .  A
O974       Eu990   2.468   1_556  S
O975        C998   1.294       .  A
O975       Eu991   2.474       .  S
O976        C999   1.295       .  A
O976       Eu992   2.483       .  S
O977       C1000   1.289       .  A
O977       Eu993   2.465       .  S
O978       C1001   1.286       .  A
O978      Eu2121   2.448       .  S
O979       C1002   1.291       .  A
O979      Eu2120   2.470       .  S
O980       C1003   1.292       .  A
O980       Eu994   2.469       .  S
O981       C1004   1.292       .  A
O982       C1003   1.292       .  A
O982       Eu992   2.464       .  S
O983       C1004   1.290       .  A
O983       Eu993   2.458       .  S
O984        C999   1.288       .  A
O984       Eu990   2.445   1_556  S
O985       C1002   1.288       .  A
O985       Eu991   2.458       .  S
O986       C1001   1.290       .  A
O987       C1000   1.288       .  A
O988        C997   1.286       .  A
O988       Eu994   2.437       .  S
O989        C998   1.285       .  A
O989      Eu2122   2.433       .  S
Eu990       O996   2.344   1_554  S
Eu991      O2093   2.357       .  S
Eu991      O1819   2.362   1_556  S
Eu991      O1841   2.338   1_556  S
Eu991      O2134   2.348       .  S
Eu992      O2107   2.470   1_455  S
Eu992      O1006   2.367       .  S
Eu992       O996   2.352       .  S
Eu993      O2106   2.448   1_455  S
Eu993       O995   2.350       .  S
Eu993      O1008   2.364       .  S
Eu994      O2117   2.433   1_455  S
Eu994      O1006   2.356       .  S
Eu994       O996   2.343       .  S
O995      Eu1837   2.338   1_455  S
C997       C1100   1.480       .  S
C998       C1113   1.477   1_556  S
C999       C1073   1.476       .  S
C1000      C1060   1.519       .  S
C1001      C1050   1.513       .  S
C1002      C1080   1.513       .  S
C1003      C1043   1.493       .  S
C1004      C1023   1.474       .  S
H1005      O1006   0.966       .  S
O1006     Eu2119   2.348   1_455  S
H1007      O1008   0.966       .  S
C1009      C1010   1.416       .  A
C1009      C1014   1.409       .  A
C1009     Br1016   1.934       .  S
C1010      C1011   1.419       .  A
C1011      C1012   1.411       .  A
C1011     Br1018   1.933   1_455  S
C1012      C1013   1.409       .  A
C1012     Br1017   1.932   1_455  S
C1013      C1014   1.409       .  A
C1014     Br1015   1.930       .  S
C1019      C1020   1.412       .  A
C1019      C1024   1.411       .  A
C1019     Br2154   1.929   1_455  S
C1020      C1021   1.413       .  A
C1021      C1022   1.404       .  A
C1021     Br1028   1.934       .  S
C1022      C1023   1.405       .  A
C1022     Br1027   1.929       .  S
C1023      C1024   1.411       .  A
C1024     Br2153   1.929   1_455  S
Br1025     C2152   1.929       .  S
Br1026     C2147   1.929       .  S
C1029      C1030   1.406       .  A
C1029      C1034   1.411       .  A
C1029     Br1036   1.927       .  S
C1030      C1031   1.409       .  A
C1031      C1032   1.402       .  A
C1031     Br2166   1.934   1_455  S
C1032      C1033   1.405       .  A
C1032     Br2165   1.917   1_455  S
C1033      C1034   1.413       .  A
C1034     Br1035   1.917       .  S
Br1037     C2160   1.917       .  S
Br1038     C2159   1.934       .  S
C1039      C1040   1.420       .  A
C1039      C1044   1.412       .  A
C1039     Br1046   1.936   1_455  S
C1040      C1041   1.419       .  A
C1041      C1042   1.407       .  A
C1041     Br1048   1.936       .  S
C1042      C1043   1.413       .  A
C1042     Br1047   1.930       .  S
C1043      C1044   1.416       .  A
C1044     Br1045   1.933   1_455  S
C1049      C1050   1.425       .  A
C1049      C1054   1.417       .  A
C1049     Br1056   1.945       .  S
C1050      C1051   1.426       .  A
C1051      C1052   1.409       .  A
C1051     Br1058   1.945       .  S
C1052      C1053   1.423       .  A
C1052     Br1057   1.943       .  S
C1053      C1054   1.428       .  A
C1054     Br1055   1.944       .  S
C1059      C1060   1.426       .  A
C1059      C1064   1.414       .  A
C1059     Br1066   1.943       .  S
C1060      C1061   1.424       .  A
C1061      C1062   1.407       .  A
C1061     Br1068   1.931       .  S
C1062      C1063   1.421       .  A
C1062     Br1067   1.945       .  S
C1063      C1064   1.426       .  A
C1064     Br1065   1.942       .  S
C1069      C1070   1.406       .  A
C1069      C1074   1.410       .  A
C1069     Br1076   1.927       .  S
C1070      C1071   1.410       .  A
C1071      C1072   1.403       .  A
C1072      C1073   1.404       .  A
C1073      C1074   1.410       .  A
C1074     Br1075   1.918       .  S
C1079      C1080   1.428       .  A
C1079      C1084   1.407       .  A
C1079     Br1086   1.942       .  S
C1080      C1081   1.428       .  A
C1081      C1082   1.412       .  A
C1082      C1083   1.411       .  A
C1083      C1084   1.416       .  A
C1084     Br1085   1.940       .  S
C1089      C1094   1.399       .  A
C1089     Br1096   1.932       .  S
C1090      C1091   1.425       .  A
C1091      C1092   1.413       .  A
C1091     Br1098   1.939   1_554  S
C1092      C1093   1.424       .  A
C1092     Br1097   1.939   1_554  S
C1094     Br1095   1.928       .  S
C1099      C1100   1.417       .  A
C1099      C1104   1.409       .  A
C1099     Br1106   1.933       .  S
C1101      C1102   1.403       .  A
C1101     Br1108   1.929       .  S
C1102     Br1107   1.937       .  S
C1103      C1104   1.409       .  A
C1104     Br1105   1.931       .  S
C1109      C1114   1.406       .  A
C1109     Br1116   1.931       .  S
C1110      C1111   1.414   1_554  A
C1111      C1112   1.403       .  A
C1111     Br1118   1.934       .  S
C1112      C1113   1.405   1_556  A
C1112     Br1117   1.928       .  S
C1114     Br1115   1.922       .  S
C1119      C1124   1.407       .  A
C1119     Br1126   1.915       .  S
C1120      C1121   1.407       .  A
C1121      C1122   1.408       .  A
C1121     Br1128   1.929       .  S
C1122      C1123   1.415       .  A
C1122     Br1127   1.933       .  S
C1124     Br1125   1.930       .  S
C1129      C1130   1.426       .  A
C1129      C1416   1.431       .  A
C1129      C1687   1.480       .  S
C1130      C1131   1.400       .  A
C1130      H1135   1.083       .  S
C1131      C1414   1.385       .  A
C1131      C1140   1.500       .  S
C1132      C1413   1.385   1_554  A
C1132      C1133   1.389   1_554  A
C1132      H1136   1.054       .  S
C1133      C1134   1.406       .  A
C1133      C1158   1.511       .  S
C1134      C1411   1.431       .  A
C1134      H1137   1.082       .  S
C1138      C1139   1.419       .  A
C1138      C1143   1.421       .  A
C1138      C1392   1.474       .  S
C1139      C1140   1.397       .  A
C1139      H1144   1.083       .  S
C1140      C1423   1.405       .  A
C1141      C1422   1.405       .  A
C1141      C1142   1.398       .  A
C1141      H1145   1.066       .  S
C1142      C1425   1.401   1_556  A
C1142      C1149   1.499   1_556  S
C1143      C1424   1.401       .  A
C1143      H1146   1.083       .  S
C1147      C1148   1.419       .  A
C1147      C1152   1.417   1_556  A
C1147      C1667   1.479       .  S
C1148      C1149   1.401   1_556  A
C1148      H1153   1.083       .  S
C1149      C1150   1.404       .  A
C1150      C1151   1.406       .  A
C1150      H1154   1.071       .  S
C1151      C1152   1.398       .  A
C1151      C1160   1.498       .  S
C1152      H1155   1.083   1_554  S
C1156      C1157   1.434       .  A
C1156      C1161   1.428       .  A
C1156      C1654   1.500       .  S
C1157      C1158   1.397   1_554  A
C1157      H1444   1.078       .  S
C1158      C1159   1.397       .  A
C1159      C1160   1.390   1_556  A
C1159      H1163   1.060       .  S
C1160      C1161   1.404       .  A
C1161      H1164   1.083       .  S
H1162      C1439   1.078       .  S
C1165      C1166   1.428       .  A
C1165      C1170   1.428       .  A
C1165      C1365   1.500       .  S
C1166      C1167   1.405       .  A
C1166      H1171   1.083       .  S
C1167      C1168   1.395       .  A
C1167      C1176   1.501       .  S
C1168      C1169   1.400       .  A
C1168      H1172   1.062       .  S
C1169      C1170   1.399       .  A
C1169      C1194   1.507       .  S
C1170      H1173   1.080       .  S
C1174      C1175   1.418       .  A
C1174      C1179   1.417       .  A
C1174      C1352   1.474       .  S
C1175      C1176   1.401       .  A
C1175      H1180   1.083       .  S
C1176      C1177   1.404       .  A
C1177      C1178   1.404       .  A
C1177      H1181   1.067       .  S
C1178      C1179   1.402       .  A
C1178      C1185   1.501       .  S
C1179      H1182   1.083       .  S
C1183      C1184   1.430       .  A
C1183      C1188   1.431       .  A
C1183      C1345   1.528       .  S
C1184      C1185   1.404       .  A
C1184      H1189   1.079       .  S
C1185      C1186   1.394       .  A
C1186      C1187   1.398       .  A
C1186      H1190   1.060       .  S
C1187      C1188   1.404       .  A
C1187      C1196   1.505       .  S
C1188      H1191   1.080       .  S
C1192      C1193   1.435       .  A
C1192      C1197   1.433       .  A
C1192      C1335   1.532       .  S
C1193      C1194   1.406       .  A
C1193      H1198   1.078       .  S
C1194      C1195   1.389       .  A
C1195      C1196   1.389       .  A
C1195      H1199   1.052       .  S
C1196      C1197   1.405       .  A
C1197      H1200   1.080       .  S
C1201      C1202   1.425       .  A
C1201      C1206   1.417       .  A
C1201      C1322   1.505       .  S
C1202      C1203   1.417       .  A
C1202      H1207   1.080       .  S
C1203      C1204   1.409       .  A
C1203      C1212   1.520       .  S
C1204      C1205   1.393       .  A
C1204      H1208   1.074       .  S
C1205      C1206   1.390       .  A
C1205      C1221   1.488       .  S
C1206      H1209   1.081       .  S
C1210      C1211   1.417       .  A
C1210      C1215   1.410       .  A
C1210      C1312   1.475       .  S
C1211      C1212   1.413       .  A
C1211      H1216   1.081       .  S
C1212      C1213   1.411       .  A
C1213      C1214   1.401       .  A
C1213      H1217   1.079       .  S
C1214      C1215   1.398       .  A
C1214      C1230   1.486       .  S
C1215      H1218   1.083       .  S
C1219      C1220   1.411       .  A
C1219      C1224   1.421       .  A
C1219      C1302   1.482       .  S
C1220      C1221   1.396       .  A
C1220      H1225   1.083       .  S
C1221      C1222   1.401       .  A
C1222      C1223   1.411       .  A
C1222      H1226   1.079       .  S
C1223      C1224   1.414       .  A
C1223      C1232   1.522       .  S
C1224      H1227   1.081       .  S
C1228      C1229   1.414       .  A
C1228      C1233   1.425       .  A
C1228      C1292   1.496       .  S
C1229      C1230   1.392       .  A
C1229      H1234   1.083       .  S
C1230      C1231   1.395       .  A
C1231      C1232   1.409       .  A
C1231      H1235   1.074       .  S
C1232      C1233   1.416       .  A
C1233      H1236   1.081       .  S
O1237      C1248   1.290       .  A
O1237     Eu2119   2.452       .  S
O1238      C1249   1.287       .  A
O1238     Eu1836   2.448       .  S
O1239      C1250   1.289       .  A
O1239     Eu1245   2.450       .  S
O1240      C1251   1.292       .  A
O1240     Eu1527   2.463   1_554  S
O1241      C1251   1.292       .  A
O1241     Eu1839   2.465       .  S
O1242      C1250   1.297       .  A
O1242     Eu1838   2.489       .  S
O1243      C1249   1.290       .  A
O1243     Eu1245   2.466       .  S
O1244      C1248   1.295       .  A
Eu1245     O1522   2.463       .  S
Eu1245     O2101   2.358       .  S
Eu1245     O1811   2.349       .  S
Eu1245     O2092   2.348       .  S
Eu1245     O1817   2.365       .  S
O1246     Eu2091   2.348   1_544  S
O1246     Eu1275   2.341       .  S
O1246     Eu1554   2.349       .  S
O1247     Eu1809   2.349   1_545  S
O1247     Eu1274   2.351       .  S
C1248      C1402   1.482       .  S
C1249      C1375   1.506       .  S
C1250      C1315   1.481       .  S
C1251      C1295   1.481       .  S
H1252      O1253   0.966   1_565  S
O1253     Eu1809   2.366   1_545  S
O1253     Eu1274   2.356       .  S
O1253     Eu1272   2.360       .  S
H1254      O1255   0.964       .  S
O1255     Eu2091   2.362   1_544  S
O1255     Eu1275   2.362       .  S
O1256      C1279   1.293       .  A
O1256     Eu1272   2.468       .  S
O1257      C1280   1.294       .  A
O1257     Eu1273   2.473       .  S
O1258      C1281   1.295       .  A
O1258     Eu1274   2.483       .  S
O1259      C1282   1.289       .  A
O1259     Eu1275   2.466       .  S
O1260      C1283   1.286       .  A
O1261      C1284   1.291       .  A
O1262      C1285   1.292       .  A
O1262     Eu1276   2.469       .  S
O1263      C1286   1.292       .  A
O1263     Eu1558   2.464   1_554  S
O1264      C1285   1.292       .  A
O1264     Eu1274   2.464       .  S
O1265      C1286   1.290       .  A
O1265     Eu1275   2.458       .  S
O1266      C1281   1.288       .  A
O1266     Eu1272   2.445       .  S
O1267      C1284   1.288       .  A
O1267     Eu1273   2.458       .  S
O1268      C1283   1.290       .  A
O1268     Eu1555   2.472   1_554  S
O1269      C1282   1.288       .  A
O1269     Eu1554   2.461       .  S
O1270      C1279   1.286       .  A
O1270     Eu1276   2.437       .  S
O1271      C1280   1.285       .  A
Eu1272     O1802   2.448   1_545  S
Eu1272     O1551   2.461       .  S
Eu1272     O1528   2.349       .  S
Eu1272     O1572   2.349       .  S
Eu1272     O1278   2.344       .  S
Eu1273     O2083   2.453   1_545  S
Eu1273     O1550   2.472       .  S
Eu1274     O1806   2.489   1_545  S
Eu1274     O1288   2.367       .  S
Eu1274     O1278   2.352       .  S
Eu1275     O1805   2.464   1_545  S
Eu1275     O1277   2.350       .  S
Eu1275     O1290   2.365       .  S
Eu1276     O1545   2.464       .  S
Eu1276     O1559   2.344       .  S
Eu1276     O1288   2.356       .  S
Eu1276     O1572   2.361       .  S
Eu1276     O1278   2.343       .  S
O1277     Eu1558   2.344   1_554  S
C1279      C1382   1.480       .  S
C1280      C1395   1.477       .  S
C1281      C1355   1.476       .  S
C1282      C1342   1.519       .  S
C1283      C1332   1.513       .  S
C1284      C1362   1.513       .  S
C1285      C1325   1.493       .  S
C1286      C1305   1.474       .  S
H1287      O1288   0.966       .  S
H1289      O1290   0.966       .  S
O1290     Eu1554   2.349       .  S
O1290     Eu1558   2.361   1_554  S
C1291      C1292   1.416       .  A
C1291      C1296   1.409       .  A
C1291     Br1298   1.934       .  S
C1292      C1293   1.419       .  A
C1293      C1294   1.411       .  A
C1293     Br1300   1.933       .  S
C1294      C1295   1.409       .  A
C1294     Br1299   1.932       .  S
C1295      C1296   1.409       .  A
C1296     Br1297   1.930       .  S
C1301      C1302   1.412       .  A
C1301      C1306   1.411       .  A
C1302      C1303   1.413       .  A
C1303      C1304   1.404       .  A
C1303     Br1310   1.934       .  S
C1304      C1305   1.405       .  A
C1304     Br1309   1.929       .  S
C1305      C1306   1.411       .  A
C1311      C1312   1.406       .  A
C1311      C1316   1.411       .  A
C1311     Br1318   1.927       .  S
C1312      C1313   1.409       .  A
C1313      C1314   1.402       .  A
C1314      C1315   1.405       .  A
C1315      C1316   1.413       .  A
C1316     Br1317   1.917       .  S
C1321      C1322   1.420       .  A
C1321      C1326   1.412       .  A
C1321     Br1328   1.936       .  S
C1322      C1323   1.419       .  A
C1323      C1324   1.407       .  A
C1323     Br1330   1.936       .  S
C1324      C1325   1.413       .  A
C1324     Br1329   1.930       .  S
C1325      C1326   1.416       .  A
C1326     Br1327   1.933       .  S
C1331      C1332   1.425       .  A
C1331      C1336   1.417       .  A
C1331     Br1338   1.945       .  S
C1332      C1333   1.426       .  A
C1333      C1334   1.409       .  A
C1333     Br1340   1.945       .  S
C1334      C1335   1.423       .  A
C1334     Br1339   1.943       .  S
C1335      C1336   1.428       .  A
C1336     Br1337   1.944       .  S
C1341      C1342   1.426       .  A
C1341      C1346   1.414       .  A
C1341     Br1348   1.943       .  S
C1342      C1343   1.424       .  A
C1343      C1344   1.407       .  A
C1343     Br1350   1.931       .  S
C1344      C1345   1.421       .  A
C1344     Br1349   1.945       .  S
C1345      C1346   1.426       .  A
C1346     Br1347   1.942       .  S
C1351      C1352   1.406       .  A
C1351      C1356   1.410       .  A
C1351     Br1358   1.927       .  S
C1352      C1353   1.410       .  A
C1353      C1354   1.403       .  A
C1353     Br1924   1.933   1_545  S
C1354      C1355   1.404       .  A
C1354     Br1923   1.920   1_545  S
C1355      C1356   1.410       .  A
C1356     Br1357   1.918       .  S
Br1359     C1918   1.920       .  S
Br1360     C1917   1.933       .  S
C1361      C1362   1.428       .  A
C1361      C1366   1.407       .  A
C1361     Br1368   1.942       .  S
C1362      C1363   1.428       .  A
C1363      C1364   1.412       .  A
C1363     Br1934   1.937       .  S
C1364      C1365   1.411       .  A
C1364     Br1933   1.934   1_545  S
C1365      C1366   1.416       .  A
C1366     Br1367   1.940       .  S
Br1369     C1928   1.934       .  S
Br1370     C1927   1.937       .  S
C1371      C1654   1.408       .  A
C1371      C1376   1.399       .  A
C1371     Br1378   1.932       .  S
C1372      C1653   1.408       .  A
C1372      C1373   1.425       .  A
C1372      C1438   1.500       .  S
C1373      C1374   1.413       .  A
C1373     Br1380   1.939       .  S
C1374      C1375   1.424       .  A
C1374     Br1379   1.939       .  S
C1375      C1658   1.419       .  A
C1376      C1657   1.419       .  A
C1376     Br1377   1.928   1_554  S
C1381      C1382   1.417       .  A
C1381      C1386   1.409       .  A
C1381     Br1388   1.933       .  S
C1382      C1665   1.409       .  A
C1383      C1664   1.409   1_554  A
C1383      C1384   1.403       .  A
C1383     Br1390   1.929       .  S
C1384      C1667   1.413   1_554  A
C1384     Br1389   1.937       .  S
C1385      C1666   1.413       .  A
C1385      C1386   1.409       .  A
C1385      C1429   1.479       .  S
C1386     Br1387   1.931       .  S
C1391      C1674   1.406       .  A
C1391      C1396   1.406       .  A
C1391     Br1398   1.931       .  S
C1392      C1673   1.406       .  A
C1392      C1393   1.414       .  A
C1393      C1394   1.403       .  A
C1393     Br1400   1.934       .  S
C1394      C1395   1.405       .  A
C1394     Br1399   1.928       .  S
C1395      C1678   1.413       .  A
C1396      C1677   1.413       .  A
C1396     Br1397   1.922       .  S
C1401      C1684   1.413       .  A
C1401      C1406   1.407       .  A
C1401     Br1408   1.915       .  S
C1402      C1683   1.413       .  A
C1402      C1403   1.407   1_556  A
C1403      C1404   1.408       .  A
C1403     Br1410   1.929       .  S
C1404      C1405   1.415   1_554  A
C1404     Br1409   1.933       .  S
C1405      C1688   1.404       .  A
C1405      C1411   1.480       .  S
C1406      C1687   1.404       .  A
C1406     Br1407   1.930       .  S
C1411      C1412   1.426       .  A
C1412      C1413   1.400       .  A
C1412      H1417   1.083       .  S
C1413      C1422   1.500       .  S
C1414      C1415   1.389       .  A
C1414      H1418   1.054       .  S
C1415      C1416   1.406       .  A
C1415      C1440   1.511       .  S
C1416      H1419   1.082       .  S
C1420      C1421   1.419       .  A
C1420      C1425   1.421       .  A
C1420      C1674   1.474       .  S
C1421      C1422   1.397   1_554  A
C1421      H1426   1.083       .  S
C1423      C1424   1.398       .  A
C1423      H1427   1.066       .  S
C1424      C1431   1.499       .  S
C1425      H1428   1.083       .  S
C1429      C1430   1.419       .  A
C1429      C1434   1.417       .  A
C1430      C1431   1.401       .  A
C1430      H1435   1.083       .  S
C1431      C1432   1.404       .  A
C1432      C1433   1.406       .  A
C1432      H1436   1.071       .  S
C1433      C1434   1.398       .  A
C1433      C1442   1.498       .  S
C1434      H1437   1.083       .  S
C1438      C1439   1.434       .  A
C1438      C1443   1.428       .  A
C1439      C1440   1.397       .  A
C1440      C1441   1.397       .  A
C1441      C1442   1.390       .  A
C1441      H1445   1.060       .  S
C1442      C1443   1.404       .  A
C1443      H1446   1.083       .  S
C1447      C1448   1.428       .  A
C1447      C1452   1.428       .  A
C1447      C1647   1.500       .  S
C1448      C1449   1.405       .  A
C1448      H1453   1.083       .  S
C1449      C1450   1.395       .  A
C1449      C1458   1.501       .  S
C1450      C1451   1.400       .  A
C1450      H1454   1.062       .  S
C1451      C1452   1.399       .  A
C1451      C1476   1.507       .  S
C1452      H1455   1.080       .  S
C1456      C1457   1.418       .  A
C1456      C1461   1.417       .  A
C1456      C1634   1.474       .  S
C1457      C1458   1.401       .  A
C1457      H1462   1.083       .  S
C1458      C1459   1.404       .  A
C1459      C1460   1.404       .  A
C1459      H1463   1.067       .  S
C1460      C1461   1.402       .  A
C1460      C1467   1.501       .  S
C1461      H1464   1.083       .  S
C1465      C1466   1.430       .  A
C1465      C1470   1.431       .  A
C1465      C1627   1.528       .  S
C1466      C1467   1.404       .  A
C1466      H1471   1.079       .  S
C1467      C1468   1.394       .  A
C1468      C1469   1.398       .  A
C1468      H1472   1.060       .  S
C1469      C1470   1.404       .  A
C1469      C1478   1.505       .  S
C1470      H1473   1.080       .  S
C1474      C1475   1.435       .  A
C1474      C1479   1.433       .  A
C1474      C1617   1.532       .  S
C1475      C1476   1.406       .  A
C1475      H1480   1.078       .  S
C1476      C1477   1.389       .  A
C1477      C1478   1.389       .  A
C1477      H1481   1.052       .  S
C1478      C1479   1.405       .  A
C1479      H1482   1.080       .  S
C1483      C1484   1.425       .  A
C1483      C1488   1.417       .  A
C1483      C1604   1.505       .  S
C1484      C1485   1.417       .  A
C1484      H1489   1.080       .  S
C1485      C1486   1.409       .  A
C1485      C1494   1.520       .  S
C1486      C1487   1.393       .  A
C1486      H1490   1.074       .  S
C1487      C1488   1.390       .  A
C1487      C1503   1.488       .  S
C1488      H1491   1.081       .  S
C1492      C1493   1.417       .  A
C1492      C1497   1.410       .  A
C1492      C1594   1.475       .  S
C1493      C1494   1.413       .  A
C1493      H1498   1.081       .  S
C1494      C1495   1.411       .  A
C1495      C1496   1.401       .  A
C1495      H1499   1.079       .  S
C1496      C1497   1.398       .  A
C1496      C1512   1.486       .  S
C1497      H1500   1.083       .  S
C1501      C1502   1.411       .  A
C1501      C1506   1.421       .  A
C1501      C1584   1.481       .  S
C1502      C1503   1.396       .  A
C1502      H1507   1.083       .  S
C1503      C1504   1.401       .  A
C1504      C1505   1.411       .  A
C1504      H1508   1.079       .  S
C1505      C1506   1.414       .  A
C1505      C1514   1.522       .  S
C1506      H1509   1.081       .  S
C1510      C1511   1.414       .  A
C1510      C1515   1.425       .  A
C1510      C1574   1.496       .  S
C1511      C1512   1.392       .  A
C1511      H1516   1.083       .  S
C1512      C1513   1.395       .  A
C1513      C1514   1.409       .  A
C1513      H1517   1.074       .  S
C1514      C1515   1.416       .  A
C1515      H1518   1.081       .  S
O1519      C1530   1.290       .  A
O1519     Eu1837   2.452       .  S
O1520      C1531   1.287       .  A
O1520     Eu2118   2.448       .  S
O1521      C1532   1.289       .  A
O1521     Eu1527   2.450       .  S
O1522      C1533   1.292       .  A
O1523      C1533   1.292       .  A
O1523     Eu2121   2.465       .  S
O1524      C1532   1.297       .  A
O1524     Eu2120   2.489       .  S
O1525      C1531   1.290       .  A
O1525     Eu1527   2.466   1_554  S
O1526      C1530   1.295       .  A
Eu1527     O1819   2.358   1_556  S
Eu1527     O2093   2.349       .  S
Eu1527     O1810   2.348   1_556  S
Eu1527     O2099   2.365       .  S
O1528     Eu1809   2.348   1_545  S
O1528     Eu1557   2.341       .  S
O1529     Eu2091   2.349   1_545  S
O1529     Eu1556   2.351       .  S
C1530      C1684   1.482       .  S
C1531      C1657   1.506       .  S
C1532      C1597   1.481       .  S
C1533      C1577   1.481       .  S
H1534      O1535   0.966   1_565  S
O1535     Eu2091   2.366   1_545  S
O1535     Eu1556   2.356       .  S
O1535     Eu1554   2.360   1_556  S
H1536      O1537   0.964       .  S
O1537     Eu1809   2.362   1_545  S
O1537     Eu1557   2.362       .  S
O1538      C1561   1.293       .  A
O1538     Eu1554   2.468   1_556  S
O1539      C1562   1.294       .  A
O1539     Eu1555   2.473       .  S
O1540      C1563   1.295       .  A
O1540     Eu1556   2.483       .  S
O1541      C1564   1.289       .  A
O1541     Eu1557   2.466       .  S
O1542      C1565   1.286       .  A
O1543      C1566   1.291       .  A
O1544      C1567   1.292       .  A
O1544     Eu1558   2.469       .  S
O1545      C1568   1.292       .  A
O1546      C1567   1.292       .  A
O1546     Eu1556   2.464       .  S
O1547      C1568   1.290       .  A
O1547     Eu1557   2.458       .  S
O1548      C1563   1.288       .  A
O1548     Eu1554   2.445   1_556  S
O1549      C1566   1.288       .  A
O1549     Eu1555   2.458       .  S
O1550      C1565   1.291       .  A
O1551      C1564   1.288       .  A
O1552      C1561   1.286       .  A
O1552     Eu1558   2.437       .  S
O1553      C1562   1.285       .  A
Eu1554     O2084   2.448   1_545  S
Eu1554     O1560   2.344   1_554  S
Eu1555     O1801   2.453   1_545  S
Eu1556     O2088   2.489   1_545  S
Eu1556     O1570   2.367       .  S
Eu1556     O1560   2.352       .  S
Eu1557     O2087   2.464   1_545  S
Eu1557     O1559   2.350       .  S
Eu1557     O1572   2.365       .  S
Eu1558     O1570   2.356       .  S
Eu1558     O1560   2.343       .  S
C1561      C1664   1.480       .  S
C1562      C1677   1.477   1_556  S
C1563      C1637   1.476       .  S
C1564      C1624   1.519       .  S
C1565      C1614   1.513       .  S
C1566      C1644   1.513       .  S
C1567      C1607   1.493       .  S
C1568      C1587   1.474       .  S
H1569      O1570   0.966       .  S
H1571      O1572   0.966       .  S
C1573      C1574   1.416       .  A
C1573      C1578   1.409       .  A
C1573     Br1580   1.934       .  S
C1574      C1575   1.419       .  A
C1575      C1576   1.411       .  A
C1575     Br1582   1.933       .  S
C1576      C1577   1.409       .  A
C1576     Br1581   1.932       .  S
C1577      C1578   1.409       .  A
C1578     Br1579   1.930       .  S
C1583      C1584   1.412       .  A
C1583      C1588   1.411       .  A
C1584      C1585   1.413       .  A
C1585      C1586   1.404       .  A
C1585     Br1592   1.934       .  S
C1586      C1587   1.405       .  A
C1586     Br1591   1.929       .  S
C1587      C1588   1.411       .  A
C1593      C1594   1.406       .  A
C1593      C1598   1.411       .  A
C1593     Br1600   1.927       .  S
C1594      C1595   1.409       .  A
C1595      C1596   1.402       .  A
C1596      C1597   1.405       .  A
C1597      C1598   1.413       .  A
C1598     Br1599   1.917       .  S
C1603      C1604   1.420       .  A
C1603      C1608   1.412       .  A
C1603     Br1610   1.936       .  S
C1604      C1605   1.419       .  A
C1605      C1606   1.407       .  A
C1605     Br1612   1.936       .  S
C1606      C1607   1.413       .  A
C1606     Br1611   1.930       .  S
C1607      C1608   1.416       .  A
C1608     Br1609   1.933       .  S
C1613      C1614   1.424       .  A
C1613      C1618   1.417       .  A
C1613     Br1620   1.945       .  S
C1614      C1615   1.426       .  A
C1615      C1616   1.410       .  A
C1615     Br1622   1.945       .  S
C1616      C1617   1.423       .  A
C1616     Br1621   1.943       .  S
C1617      C1618   1.428       .  A
C1618     Br1619   1.944       .  S
C1623      C1624   1.426       .  A
C1623      C1628   1.414       .  A
C1623     Br1630   1.943       .  S
C1624      C1625   1.424       .  A
C1625      C1626   1.407       .  A
C1625     Br1632   1.931       .  S
C1626      C1627   1.421       .  A
C1626     Br1631   1.945       .  S
C1627      C1628   1.426       .  A
C1628     Br1629   1.942       .  S
C1633      C1634   1.406       .  A
C1633      C1638   1.410       .  A
C1633     Br1640   1.927       .  S
C1634      C1635   1.410       .  A
C1635      C1636   1.403       .  A
C1635     Br2206   1.933   1_545  S
C1636      C1637   1.404       .  A
C1636     Br2205   1.920   1_545  S
C1637      C1638   1.410       .  A
C1638     Br1639   1.918       .  S
Br1641     C2200   1.920       .  S
Br1642     C2199   1.933       .  S
C1643      C1644   1.428       .  A
C1643      C1648   1.407       .  A
C1643     Br1650   1.942       .  S
C1644      C1645   1.428       .  A
C1645      C1646   1.412       .  A
C1645     Br2216   1.937       .  S
C1646      C1647   1.411       .  A
C1646     Br2215   1.934   1_545  S
C1647      C1648   1.416       .  A
C1648     Br1649   1.940       .  S
Br1651     C2210   1.934       .  S
Br1652     C2209   1.937       .  S
C1653      C1658   1.399       .  A
C1653     Br1660   1.932       .  S
C1654      C1655   1.425       .  A
C1655      C1656   1.413       .  A
C1655     Br1662   1.939   1_554  S
C1656      C1657   1.424       .  A
C1656     Br1661   1.939   1_554  S
C1658     Br1659   1.928       .  S
C1663      C1664   1.417       .  A
C1663      C1668   1.409       .  A
C1663     Br1670   1.933       .  S
C1665      C1666   1.403       .  A
C1665     Br1672   1.929       .  S
C1666     Br1671   1.937       .  S
C1667      C1668   1.409       .  A
C1668     Br1669   1.931       .  S
C1673      C1678   1.406       .  A
C1673     Br1680   1.931       .  S
C1674      C1675   1.414   1_554  A
C1675      C1676   1.403       .  A
C1675     Br1682   1.934       .  S
C1676      C1677   1.405   1_556  A
C1676     Br1681   1.928       .  S
C1678     Br1679   1.922       .  S
C1683      C1688   1.407       .  A
C1683     Br1690   1.915       .  S
C1684      C1685   1.407       .  A
C1685      C1686   1.408       .  A
C1685     Br1692   1.929       .  S
C1686      C1687   1.415       .  A
C1686     Br1691   1.933       .  S
C1688     Br1689   1.930       .  S
C1693      C1694   1.426       .  A
C1693      C1980   1.431       .  A
C1693      C2251   1.480       .  S
C1694      C1695   1.400       .  A
C1694      H1699   1.083       .  S
C1695      C1978   1.385       .  A
C1695      C1704   1.500       .  S
C1696      C1977   1.385   1_554  A
C1696      C1697   1.389   1_554  A
C1696      H1700   1.054       .  S
C1697      C1698   1.406       .  A
C1697      C1722   1.511       .  S
C1698      C1975   1.431       .  A
C1698      H1701   1.082       .  S
C1702      C1703   1.419       .  A
C1702      C1707   1.421       .  A
C1702      C1956   1.474       .  S
C1703      C1704   1.397       .  A
C1703      H1708   1.083       .  S
C1704      C1987   1.405       .  A
C1705      C1986   1.405       .  A
C1705      C1706   1.398       .  A
C1705      H1709   1.066       .  S
C1706      C1989   1.401   1_556  A
C1706      C1713   1.499   1_556  S
C1707      C1988   1.401       .  A
C1707      H1710   1.083       .  S
C1711      C1712   1.419       .  A
C1711      C1716   1.417   1_556  A
C1711      C2231   1.479       .  S
C1712      C1713   1.401   1_556  A
C1712      H1717   1.083       .  S
C1713      C1714   1.404       .  A
C1714      C1715   1.406       .  A
C1714      H1718   1.071       .  S
C1715      C1716   1.398       .  A
C1715      C1724   1.498       .  S
C1716      H1719   1.083   1_554  S
C1720      C1721   1.434       .  A
C1720      C1725   1.428       .  A
C1720      C2218   1.500       .  S
C1721      C1722   1.397   1_554  A
C1721      H2008   1.078       .  S
C1722      C1723   1.397       .  A
C1723      C1724   1.390   1_556  A
C1723      H1727   1.060       .  S
C1724      C1725   1.404       .  A
C1725      H1728   1.083       .  S
H1726      C2003   1.078       .  S
C1729      C1730   1.428       .  A
C1729      C1734   1.428       .  A
C1729      C1929   1.500       .  S
C1730      C1731   1.405       .  A
C1730      H1735   1.083       .  S
C1731      C1732   1.395       .  A
C1731      C1740   1.501       .  S
C1732      C1733   1.400       .  A
C1732      H1736   1.062       .  S
C1733      C1734   1.399       .  A
C1733      C1758   1.507       .  S
C1734      H1737   1.080       .  S
C1738      C1739   1.418       .  A
C1738      C1743   1.417       .  A
C1738      C1916   1.474       .  S
C1739      C1740   1.401       .  A
C1739      H1744   1.083       .  S
C1740      C1741   1.404       .  A
C1741      C1742   1.404       .  A
C1741      H1745   1.067       .  S
C1742      C1743   1.402       .  A
C1742      C1749   1.501       .  S
C1743      H1746   1.083       .  S
C1747      C1748   1.430       .  A
C1747      C1752   1.431       .  A
C1747      C1909   1.528       .  S
C1748      C1749   1.404       .  A
C1748      H1753   1.079       .  S
C1749      C1750   1.394       .  A
C1750      C1751   1.398       .  A
C1750      H1754   1.060       .  S
C1751      C1752   1.404       .  A
C1751      C1760   1.505       .  S
C1752      H1755   1.080       .  S
C1756      C1757   1.435       .  A
C1756      C1761   1.433       .  A
C1756      C1899   1.532       .  S
C1757      C1758   1.406       .  A
C1757      H1762   1.078       .  S
C1758      C1759   1.389       .  A
C1759      C1760   1.389       .  A
C1759      H1763   1.052       .  S
C1760      C1761   1.405       .  A
C1761      H1764   1.080       .  S
C1765      C1766   1.425       .  A
C1765      C1770   1.417       .  A
C1765      C1886   1.505       .  S
C1766      C1767   1.417       .  A
C1766      H1771   1.080       .  S
C1767      C1768   1.409       .  A
C1767      C1776   1.520       .  S
C1768      C1769   1.393       .  A
C1768      H1772   1.074       .  S
C1769      C1770   1.390       .  A
C1769      C1785   1.488       .  S
C1770      H1773   1.081       .  S
C1774      C1775   1.417       .  A
C1774      C1779   1.410       .  A
C1774      C1876   1.475       .  S
C1775      C1776   1.413       .  A
C1775      H1780   1.081       .  S
C1776      C1777   1.411       .  A
C1777      C1778   1.401       .  A
C1777      H1781   1.079       .  S
C1778      C1779   1.398       .  A
C1778      C1794   1.486       .  S
C1779      H1782   1.083       .  S
C1783      C1784   1.411       .  A
C1783      C1788   1.421       .  A
C1783      C1866   1.481       .  S
C1784      C1785   1.396       .  A
C1784      H1789   1.083       .  S
C1785      C1786   1.401       .  A
C1786      C1787   1.411       .  A
C1786      H1790   1.079       .  S
C1787      C1788   1.414       .  A
C1787      C1796   1.522       .  S
C1788      H1791   1.081       .  S
C1792      C1793   1.414       .  A
C1792      C1797   1.425       .  A
C1792      C1856   1.496       .  S
C1793      C1794   1.392       .  A
C1793      H1798   1.083       .  S
C1794      C1795   1.395       .  A
C1795      C1796   1.409       .  A
C1795      H1799   1.074       .  S
C1796      C1797   1.416       .  A
C1797      H1800   1.081       .  S
O1801      C1812   1.290       .  A
O1802      C1813   1.287       .  A
O1803      C1814   1.289       .  A
O1803     Eu1809   2.451       .  S
O1804      C1815   1.292       .  A
O1804     Eu2091   2.462   1_554  S
O1805      C1815   1.292       .  A
O1806      C1814   1.297       .  A
O1807      C1813   1.290       .  A
O1807     Eu1809   2.467       .  S
O1808      C1812   1.295       .  A
Eu1809     O2086   2.462       .  S
O1810     Eu1839   2.341       .  S
O1810     Eu2118   2.349       .  S
O1811     Eu1838   2.351       .  S
C1812      C1966   1.482       .  S
C1813      C1939   1.506       .  S
C1814      C1879   1.481       .  S
C1815      C1859   1.481       .  S
H1816      O1817   0.966       .  S
O1817     Eu1838   2.356       .  S
O1817     Eu1836   2.360       .  S
H1818      O1819   0.966       .  S
O1819     Eu1839   2.358       .  S
O1820      C1843   1.293       .  A
O1820     Eu1836   2.468       .  S
O1821      C1844   1.294       .  A
O1821     Eu1837   2.474       .  S
O1822      C1845   1.295       .  A
O1822     Eu1838   2.483       .  S
O1823      C1846   1.289       .  A
O1823     Eu1839   2.465       .  S
O1824      C1847   1.286       .  A
O1825      C1848   1.291       .  A
O1826      C1849   1.292       .  A
O1826     Eu1840   2.469       .  S
O1827      C1850   1.292       .  A
O1827     Eu2122   2.464   1_554  S
O1828      C1849   1.292       .  A
O1828     Eu1838   2.464       .  S
O1829      C1850   1.290       .  A
O1829     Eu1839   2.458       .  S
O1830      C1845   1.288       .  A
O1830     Eu1836   2.445       .  S
O1831      C1848   1.288       .  A
O1831     Eu1837   2.458       .  S
O1832      C1847   1.290       .  A
O1832     Eu2119   2.471   1_554  S
O1833      C1846   1.288       .  A
O1833     Eu2118   2.461       .  S
O1834      C1843   1.286       .  A
O1834     Eu1840   2.437       .  S
O1835      C1844   1.285       .  A
Eu1836     O2115   2.461       .  S
Eu1836     O2092   2.349       .  S
Eu1836     O2136   2.349       .  S
Eu1836     O1842   2.344       .  S
Eu1837     O2114   2.471       .  S
Eu1838     O1852   2.367       .  S
Eu1838     O1842   2.352       .  S
Eu1839     O1841   2.350       .  S
Eu1839     O1854   2.364       .  S
Eu1840     O2109   2.464       .  S
Eu1840     O2123   2.344       .  S
Eu1840     O1852   2.356       .  S
Eu1840     O2136   2.361       .  S
Eu1840     O1842   2.343       .  S
O1841     Eu2122   2.344   1_554  S
C1843      C1946   1.480       .  S
C1844      C1959   1.477       .  S
C1845      C1919   1.476       .  S
C1846      C1906   1.519       .  S
C1847      C1896   1.513       .  S
C1848      C1926   1.513       .  S
C1849      C1889   1.493       .  S
C1850      C1869   1.474       .  S
H1851      O1852   0.966       .  S
H1853      O1854   0.966       .  S
O1854     Eu2118   2.349       .  S
O1854     Eu2122   2.361   1_554  S
C1855      C1856   1.416       .  A
C1855      C1860   1.409       .  A
C1855     Br1862   1.934       .  S
C1856      C1857   1.419       .  A
C1857      C1858   1.411       .  A
C1857     Br1864   1.933       .  S
C1858      C1859   1.409       .  A
C1858     Br1863   1.932       .  S
C1859      C1860   1.409       .  A
C1860     Br1861   1.930       .  S
C1865      C1866   1.412       .  A
C1865      C1870   1.411       .  A
C1866      C1867   1.413       .  A
C1867      C1868   1.404       .  A
C1867     Br1874   1.934       .  S
C1868      C1869   1.405       .  A
C1868     Br1873   1.929       .  S
C1869      C1870   1.411       .  A
C1875      C1876   1.406       .  A
C1875      C1880   1.411       .  A
C1875     Br1882   1.927       .  S
C1876      C1877   1.409       .  A
C1877      C1878   1.402       .  A
C1878      C1879   1.405       .  A
C1879      C1880   1.413       .  A
C1880     Br1881   1.917       .  S
C1885      C1886   1.420       .  A
C1885      C1890   1.412       .  A
C1885     Br1892   1.936       .  S
C1886      C1887   1.419       .  A
C1887      C1888   1.407       .  A
C1887     Br1894   1.936       .  S
C1888      C1889   1.413       .  A
C1888     Br1893   1.930       .  S
C1889      C1890   1.416       .  A
C1890     Br1891   1.933       .  S
C1895      C1896   1.424       .  A
C1895      C1900   1.417       .  A
C1895     Br1902   1.945       .  S
C1896      C1897   1.426       .  A
C1897      C1898   1.410       .  A
C1897     Br1904   1.945       .  S
C1898      C1899   1.423       .  A
C1898     Br1903   1.943       .  S
C1899      C1900   1.428       .  A
C1900     Br1901   1.944       .  S
C1905      C1906   1.426       .  A
C1905      C1910   1.414       .  A
C1905     Br1912   1.943       .  S
C1906      C1907   1.424       .  A
C1907      C1908   1.407       .  A
C1907     Br1914   1.931       .  S
C1908      C1909   1.421       .  A
C1908     Br1913   1.945       .  S
C1909      C1910   1.426       .  A
C1910     Br1911   1.942       .  S
C1915      C1916   1.406       .  A
C1915      C1920   1.410       .  A
C1915     Br1922   1.927       .  S
C1916      C1917   1.410       .  A
C1917      C1918   1.403       .  A
C1918      C1919   1.404       .  A
C1919      C1920   1.410       .  A
C1920     Br1921   1.918       .  S
C1925      C1926   1.428       .  A
C1925      C1930   1.407       .  A
C1925     Br1932   1.942       .  S
C1926      C1927   1.428       .  A
C1927      C1928   1.412       .  A
C1928      C1929   1.411       .  A
C1929      C1930   1.416       .  A
C1930     Br1931   1.940       .  S
C1935      C2218   1.408       .  A
C1935      C1940   1.399       .  A
C1935     Br1942   1.932       .  S
C1936      C2217   1.408       .  A
C1936      C1937   1.425       .  A
C1936      C2002   1.500       .  S
C1937      C1938   1.413       .  A
C1937     Br1944   1.939       .  S
C1938      C1939   1.424       .  A
C1938     Br1943   1.939       .  S
C1939      C2222   1.419       .  A
C1940      C2221   1.419       .  A
C1940     Br1941   1.928   1_554  S
C1945      C1946   1.417       .  A
C1945      C1950   1.409       .  A
C1945     Br1952   1.933       .  S
C1946      C2229   1.409       .  A
C1947      C2228   1.409   1_554  A
C1947      C1948   1.403       .  A
C1947     Br1954   1.929       .  S
C1948      C2231   1.413   1_554  A
C1948     Br1953   1.937       .  S
C1949      C2230   1.413       .  A
C1949      C1950   1.409       .  A
C1949      C1993   1.479       .  S
C1950     Br1951   1.931       .  S
C1955      C2238   1.406       .  A
C1955      C1960   1.406       .  A
C1955     Br1962   1.931       .  S
C1956      C2237   1.406       .  A
C1956      C1957   1.414       .  A
C1957      C1958   1.403       .  A
C1957     Br1964   1.934       .  S
C1958      C1959   1.405       .  A
C1958     Br1963   1.928       .  S
C1959      C2242   1.413       .  A
C1960      C2241   1.413       .  A
C1960     Br1961   1.922       .  S
C1965      C2248   1.413       .  A
C1965      C1970   1.407       .  A
C1965     Br1972   1.915       .  S
C1966      C2247   1.413       .  A
C1966      C1967   1.407   1_556  A
C1967      C1968   1.408       .  A
C1967     Br1974   1.929       .  S
C1968      C1969   1.415   1_554  A
C1968     Br1973   1.933       .  S
C1969      C2252   1.404       .  A
C1969      C1975   1.480       .  S
C1970      C2251   1.404       .  A
C1970     Br1971   1.930       .  S
C1975      C1976   1.426       .  A
C1976      C1977   1.400       .  A
C1976      H1981   1.083       .  S
C1977      C1986   1.500       .  S
C1978      C1979   1.389       .  A
C1978      H1982   1.054       .  S
C1979      C1980   1.406       .  A
C1979      C2004   1.511       .  S
C1980      H1983   1.082       .  S
C1984      C1985   1.419       .  A
C1984      C1989   1.421       .  A
C1984      C2238   1.474       .  S
C1985      C1986   1.397   1_554  A
C1985      H1990   1.083       .  S
C1987      C1988   1.398       .  A
C1987      H1991   1.066       .  S
C1988      C1995   1.499       .  S
C1989      H1992   1.083       .  S
C1993      C1994   1.419       .  A
C1993      C1998   1.417       .  A
C1994      C1995   1.401       .  A
C1994      H1999   1.083       .  S
C1995      C1996   1.404       .  A
C1996      C1997   1.406       .  A
C1996      H2000   1.071       .  S
C1997      C1998   1.398       .  A
C1997      C2006   1.498       .  S
C1998      H2001   1.083       .  S
C2002      C2003   1.434       .  A
C2002      C2007   1.428       .  A
C2003      C2004   1.397       .  A
C2004      C2005   1.397       .  A
C2005      C2006   1.390       .  A
C2005      H2009   1.060       .  S
C2006      C2007   1.404       .  A
C2007      H2010   1.083       .  S
C2011      C2012   1.428       .  A
C2011      C2016   1.428       .  A
C2011      C2211   1.500       .  S
C2012      C2013   1.405       .  A
C2012      H2017   1.083       .  S
C2013      C2014   1.395       .  A
C2013      C2022   1.501       .  S
C2014      C2015   1.400       .  A
C2014      H2018   1.062       .  S
C2015      C2016   1.399       .  A
C2015      C2040   1.507       .  S
C2016      H2019   1.080       .  S
C2020      C2021   1.418       .  A
C2020      C2025   1.417       .  A
C2020      C2198   1.474       .  S
C2021      C2022   1.401       .  A
C2021      H2026   1.083       .  S
C2022      C2023   1.404       .  A
C2023      C2024   1.404       .  A
C2023      H2027   1.067       .  S
C2024      C2025   1.402       .  A
C2024      C2031   1.501       .  S
C2025      H2028   1.083       .  S
C2029      C2030   1.430       .  A
C2029      C2034   1.431       .  A
C2029      C2191   1.528       .  S
C2030      C2031   1.404       .  A
C2030      H2035   1.079       .  S
C2031      C2032   1.394       .  A
C2032      C2033   1.398       .  A
C2032      H2036   1.060       .  S
C2033      C2034   1.404       .  A
C2033      C2042   1.505       .  S
C2034      H2037   1.080       .  S
C2038      C2039   1.435       .  A
C2038      C2043   1.433       .  A
C2038      C2181   1.532       .  S
C2039      C2040   1.406       .  A
C2039      H2044   1.078       .  S
C2040      C2041   1.389       .  A
C2041      C2042   1.389       .  A
C2041      H2045   1.052       .  S
C2042      C2043   1.405       .  A
C2043      H2046   1.080       .  S
C2047      C2048   1.425       .  A
C2047      C2052   1.417       .  A
C2047      C2168   1.505       .  S
C2048      C2049   1.417       .  A
C2048      H2053   1.080       .  S
C2049      C2050   1.409       .  A
C2049      C2058   1.520       .  S
C2050      C2051   1.393       .  A
C2050      H2054   1.074       .  S
C2051      C2052   1.390       .  A
C2051      C2067   1.488       .  S
C2052      H2055   1.081       .  S
C2056      C2057   1.417       .  A
C2056      C2061   1.410       .  A
C2056      C2158   1.475       .  S
C2057      C2058   1.413       .  A
C2057      H2062   1.081       .  S
C2058      C2059   1.411       .  A
C2059      C2060   1.401       .  A
C2059      H2063   1.079       .  S
C2060      C2061   1.398       .  A
C2060      C2076   1.486       .  S
C2061      H2064   1.083       .  S
C2065      C2066   1.411       .  A
C2065      C2070   1.421       .  A
C2065      C2148   1.482       .  S
C2066      C2067   1.396       .  A
C2066      H2071   1.083       .  S
C2067      C2068   1.401       .  A
C2068      C2069   1.411       .  A
C2068      H2072   1.079       .  S
C2069      C2070   1.414       .  A
C2069      C2078   1.522       .  S
C2070      H2073   1.081       .  S
C2074      C2075   1.414       .  A
C2074      C2079   1.425       .  A
C2074      C2138   1.496       .  S
C2075      C2076   1.392       .  A
C2075      H2080   1.083       .  S
C2076      C2077   1.395       .  A
C2077      C2078   1.409       .  A
C2077      H2081   1.074       .  S
C2078      C2079   1.416       .  A
C2079      H2082   1.081       .  S
O2083      C2094   1.290       .  A
O2084      C2095   1.287       .  A
O2085      C2096   1.289       .  A
O2085     Eu2091   2.451       .  S
O2086      C2097   1.292       .  A
O2087      C2097   1.292       .  A
O2088      C2096   1.297       .  A
O2089      C2095   1.290       .  A
O2089     Eu2091   2.467   1_554  S
O2090      C2094   1.295       .  A
O2092     Eu2121   2.341       .  S
O2093     Eu2120   2.351       .  S
C2094      C2248   1.482       .  S
C2095      C2221   1.506       .  S
C2096      C2161   1.481       .  S
C2097      C2141   1.481       .  S
H2098      O2099   0.966       .  S
O2099     Eu2120   2.356       .  S
O2099     Eu2118   2.360   1_556  S
H2100      O2101   0.966       .  S
O2101     Eu2121   2.358       .  S
O2102      C2125   1.293       .  A
O2102     Eu2118   2.468   1_556  S
O2103      C2126   1.294       .  A
O2103     Eu2119   2.474       .  S
O2104      C2127   1.295       .  A
O2104     Eu2120   2.483       .  S
O2105      C2128   1.289       .  A
O2105     Eu2121   2.465       .  S
O2106      C2129   1.286       .  A
O2107      C2130   1.291       .  A
O2108      C2131   1.292       .  A
O2108     Eu2122   2.469       .  S
O2109      C2132   1.292       .  A
O2110      C2131   1.292       .  A
O2110     Eu2120   2.464       .  S
O2111      C2132   1.290       .  A
O2111     Eu2121   2.458       .  S
O2112      C2127   1.288       .  A
O2112     Eu2118   2.445   1_556  S
O2113      C2130   1.288       .  A
O2113     Eu2119   2.458       .  S
O2114      C2129   1.290       .  A
O2115      C2128   1.288       .  A
O2116      C2125   1.286       .  A
O2116     Eu2122   2.437       .  S
O2117      C2126   1.285       .  A
Eu2118     O2124   2.344   1_554  S
Eu2120     O2134   2.367       .  S
Eu2120     O2124   2.352       .  S
Eu2121     O2123   2.350       .  S
Eu2121     O2136   2.364       .  S
Eu2122     O2134   2.356       .  S
Eu2122     O2124   2.343       .  S
C2125      C2228   1.480       .  S
C2126      C2241   1.477   1_556  S
C2127      C2201   1.476       .  S
C2128      C2188   1.519       .  S
C2129      C2178   1.513       .  S
C2130      C2208   1.513       .  S
C2131      C2171   1.493       .  S
C2132      C2151   1.474       .  S
H2133      O2134   0.966       .  S
H2135      O2136   0.966       .  S
C2137      C2138   1.416       .  A
C2137      C2142   1.409       .  A
C2137     Br2144   1.934       .  S
C2138      C2139   1.419       .  A
C2139      C2140   1.411       .  A
C2139     Br2146   1.933       .  S
C2140      C2141   1.409       .  A
C2140     Br2145   1.932       .  S
C2141      C2142   1.409       .  A
C2142     Br2143   1.930       .  S
C2147      C2148   1.412       .  A
C2147      C2152   1.411       .  A
C2148      C2149   1.413       .  A
C2149      C2150   1.404       .  A
C2149     Br2156   1.934       .  S
C2150      C2151   1.405       .  A
C2150     Br2155   1.929       .  S
C2151      C2152   1.411       .  A
C2157      C2158   1.406       .  A
C2157      C2162   1.411       .  A
C2157     Br2164   1.927       .  S
C2158      C2159   1.409       .  A
C2159      C2160   1.402       .  A
C2160      C2161   1.405       .  A
C2161      C2162   1.413       .  A
C2162     Br2163   1.917       .  S
C2167      C2168   1.420       .  A
C2167      C2172   1.412       .  A
C2167     Br2174   1.936       .  S
C2168      C2169   1.419       .  A
C2169      C2170   1.407       .  A
C2169     Br2176   1.936       .  S
C2170      C2171   1.413       .  A
C2170     Br2175   1.930       .  S
C2171      C2172   1.416       .  A
C2172     Br2173   1.933       .  S
C2177      C2178   1.425       .  A
C2177      C2182   1.417       .  A
C2177     Br2184   1.945       .  S
C2178      C2179   1.426       .  A
C2179      C2180   1.409       .  A
C2179     Br2186   1.945       .  S
C2180      C2181   1.423       .  A
C2180     Br2185   1.943       .  S
C2181      C2182   1.428       .  A
C2182     Br2183   1.944       .  S
C2187      C2188   1.426       .  A
C2187      C2192   1.414       .  A
C2187     Br2194   1.943       .  S
C2188      C2189   1.424       .  A
C2189      C2190   1.407       .  A
C2189     Br2196   1.931       .  S
C2190      C2191   1.421       .  A
C2190     Br2195   1.945       .  S
C2191      C2192   1.426       .  A
C2192     Br2193   1.942       .  S
C2197      C2198   1.406       .  A
C2197      C2202   1.410       .  A
C2197     Br2204   1.927       .  S
C2198      C2199   1.410       .  A
C2199      C2200   1.403       .  A
C2200      C2201   1.404       .  A
C2201      C2202   1.410       .  A
C2202     Br2203   1.918       .  S
C2207      C2208   1.428       .  A
C2207      C2212   1.407       .  A
C2207     Br2214   1.942       .  S
C2208      C2209   1.428       .  A
C2209      C2210   1.412       .  A
C2210      C2211   1.411       .  A
C2211      C2212   1.416       .  A
C2212     Br2213   1.940       .  S
C2217      C2222   1.399       .  A
C2217     Br2224   1.932       .  S
C2218      C2219   1.425       .  A
C2219      C2220   1.413       .  A
C2219     Br2226   1.939   1_554  S
C2220      C2221   1.424       .  A
C2220     Br2225   1.939   1_554  S
C2222     Br2223   1.928       .  S
C2227      C2228   1.417       .  A
C2227      C2232   1.409       .  A
C2227     Br2234   1.933       .  S
C2229      C2230   1.403       .  A
C2229     Br2236   1.929       .  S
C2230     Br2235   1.937       .  S
C2231      C2232   1.409       .  A
C2232     Br2233   1.931       .  S
C2237      C2242   1.406       .  A
C2237     Br2244   1.931       .  S
C2238      C2239   1.414   1_554  A
C2239      C2240   1.403       .  A
C2239     Br2246   1.934       .  S
C2240      C2241   1.405   1_556  A
C2240     Br2245   1.928       .  S
C2242     Br2243   1.922       .  S
C2247      C2252   1.407       .  A
C2247     Br2254   1.915       .  S
C2248      C2249   1.407       .  A
C2249      C2250   1.408       .  A
C2249     Br2256   1.929       .  S
C2250      C2251   1.415       .  A
C2250     Br2255   1.933       .  S
C2252     Br2253   1.930       .  S
