geometry optimzed in LAMMPS
_audit_creation_date              2020-12-01 
_audit_creation_method            'lammps2cif' 
_symmetry_space_group_name_H-M    'P1' 
_symmetry_Int_Tables_number       1 
_symmetry_cell_setting            triclinic 
loop_ 
_symmetry_equiv_pos_as_xyz 
  x,y,z 
_cell_length_a                    24.07062707 
_cell_length_b                    25.72855393694964 
_cell_length_c                    25.635800589314616 
_cell_angle_alpha                 94.61177057156847 
_cell_angle_beta                  88.94800772272482 
_cell_angle_gamma                 89.98993537384668 
loop_ 
_atom_site_label 
_atom_site_type_symbol 
_atom_site_fract_x 
_atom_site_fract_y 
_atom_site_fract_z 
_atom_site_charge 
C1          C  0.19845668  0.19898161  0.21129226     0.88500
C2          C  0.23924677  0.17237164  0.24662126    -0.51700
C3          C  0.26870822  0.20719100  0.27871495     0.11400
C4          C  0.25417809  0.26476383  0.27200354     0.22400
C5          C  0.16155115  0.23442559  0.24890431    -0.52400
C6          C  0.19090100  0.26955032  0.28007126     0.11600
C7          C  0.23458282  0.23653171  0.18167075    -0.52000
C8          C  0.26361997  0.27121091  0.21370110     0.12100
H9          H  0.24401884  0.13040284  0.24630376     0.16600
H10         H  0.27797462  0.29317066  0.29781179     0.02400
H11         H  0.11643540  0.23373653  0.24879279     0.16900
H12         H  0.23532631  0.23693492  0.13931945     0.16700
C13         C  0.17701053  0.40561075  0.35297989     0.32000
C14         C  0.17642769  0.48591576  0.42915177     0.32000
C15         C  0.20217815  0.45697779  0.33715631    -0.04200
C16         C  0.11933025  0.42324302  0.37428613    -0.04900
C17         C  0.20828646  0.39536039  0.40286418    -0.04800
C18         C  0.20283247  0.49798888  0.37645748    -0.04200
C19         C  0.11909970  0.46458069  0.41345318    -0.04900
C20         C  0.20676147  0.43627607  0.44233886    -0.04800
C21         C  0.20559104  0.54351186  0.35144245    -0.30200
N22         N  0.20632365  0.53175022  0.29905233     0.16300
C23         C  0.20278997  0.47931701  0.28979687    -0.30200
H24         H  0.19874402  0.45890382  0.25148282     0.18200
C25         C  0.06477759  0.47408377  0.42842140    -0.29200
N26         N  0.03259729  0.43989127  0.39956982     0.15000
C27         C  0.06502536  0.40874515  0.36640122    -0.29200
C28         C  0.20959045  0.41366381  0.48942854    -0.29500
N29         N  0.21557059  0.36153970  0.47978796     0.15500
H30         H  0.20424069  0.43345641  0.52806411     0.18100
C31         C  0.21460986  0.34991356  0.42752111    -0.29500
H32         H  0.21379036  0.31055797  0.40920246     0.18100
H33         H  0.05014191  0.37782838  0.33906302     0.18100
H34         H  0.20387254  0.58281651  0.36990509     0.18200
H35         H  0.04971079  0.50325839  0.45809919     0.18200
C36         C  0.19308099  0.68978893  0.57730567     0.88500
C37         C  0.24087444  0.71256504  0.54525423    -0.51700
C38         C  0.27107382  0.67538425  0.51560987     0.11400
C39         C  0.25025743  0.61953283  0.52128229     0.22400
C40         C  0.15799936  0.65722077  0.53696545    -0.52400
C41         C  0.18799991  0.61956478  0.50821874     0.11600
C42         C  0.22086443  0.64946355  0.60955556    -0.52000
C43         C  0.25124517  0.61278828  0.58021536     0.12100
H44         H  0.25010231  0.75391893  0.54687692     0.16600
H45         H  0.27439022  0.58957516  0.49688693     0.02400
H46         H  0.11338027  0.66161976  0.53351226     0.16900
H47         H  0.21732153  0.65021385  0.65193074     0.16700
C48         C  0.38695142  0.14426115  0.35621877     0.32000
C49         C  0.46739930  0.14363771  0.42964093     0.32000
C50         C  0.36658794  0.14682675  0.41317299    -0.04200
C51         C  0.42375838  0.09466469  0.35249434    -0.04900
C52         C  0.42973680  0.18834034  0.35603666    -0.04800
C53         C  0.40768901  0.14583155  0.45016666    -0.04200
C54         C  0.46663539  0.09493083  0.39056747    -0.04900
C55         C  0.46991888  0.18872512  0.39464627    -0.04800
C56         C  0.38283169  0.15316194  0.49843379    -0.30200
N57         N  0.32747819  0.15918707  0.49182453     0.16300
C58         C  0.31702252  0.15540774  0.43986057    -0.30200
H59         H  0.27709758  0.16243182  0.42295066     0.18200
C60         C  0.47252513  0.04420704  0.40280770    -0.29200
N61         N  0.43680246  0.01365685  0.37473549     0.15000
C62         C  0.40619170  0.04337019  0.34503173    -0.29200
C63         C  0.51490618  0.21586822  0.37735595    -0.29500
N64         N  0.50365064  0.23133920  0.32968117     0.15500
H65         H  0.55533672  0.21866905  0.39523075     0.18100
C66         C  0.45278430  0.21356542  0.31544787    -0.29500
H67         H  0.43574318  0.21511317  0.27680902     0.18100
H68         H  0.36872820  0.03016275  0.32536297     0.18100
H69         H  0.40426197  0.15877718  0.53516796     0.18200
H70         H  0.49485703  0.03168959  0.43588398     0.18200
C71         C  0.67144923  0.26804739  0.15299040     0.88500
C72         C  0.70080435  0.30316534  0.19624397    -0.45900
C73         C  0.66408044  0.33047916  0.22976740     0.11400
C74         C  0.60312382  0.31976265  0.21684429     0.22400
C75         C  0.63202764  0.23344504  0.18263051    -0.52400
C76         C  0.59665845  0.26066931  0.21636876     0.11600
C77         C  0.63271201  0.30498693  0.12564111    -0.52000
C78         C  0.59655001  0.33194378  0.15977376     0.12100
H79         H  0.74557809  0.30570660  0.19993375     0.16600
H80         H  0.57333311  0.34161704  0.24402361     0.02400
H81         H  0.63236991  0.19108131  0.17775553     0.16900
H82         H  0.63278946  0.30798163  0.08365745     0.16700
C83         C  0.21657988  0.25599488  0.69010560     0.88500
C84         C  0.18437589  0.28436961  0.64907664    -0.51700
C85         C  0.21682720  0.29649899  0.60729212     0.11400
C86         C  0.27732576  0.27916002  0.61084920     0.22400
C87         C  0.24362584  0.20868417  0.65980700    -0.52400
C88         C  0.27461996  0.22096527  0.61830954     0.11600
C89         C  0.26525026  0.29307832  0.70561895    -0.52000
C90         C  0.29684076  0.30549891  0.66305101     0.12100
H91         H  0.14074380  0.29488302  0.65330503     0.16600
H92         H  0.30423153  0.28832662  0.57718305     0.02400
H93         H  0.23753449  0.16862845  0.66936817     0.16900
H94         H  0.27280553  0.30855558  0.74546933     0.16700
C95         C  0.72124741  0.47778859  0.43930838     0.32000
C96         C  0.72611356  0.41168901  0.35008141     0.32000
C97         C  0.70409244  0.50083227  0.38867435    -0.04200
C98         C  0.77904274  0.45533401  0.42382438    -0.04900
C99         C  0.68499929  0.42846562  0.43999565    -0.04800
C100        C  0.70624108  0.46733682  0.34349245    -0.04200
C101        C  0.78131654  0.42138311  0.37812682    -0.04900
C102        C  0.68843862  0.39414240  0.39434996    -0.04800
C103        C  0.69082192  0.49560803  0.30265065    -0.30200
N104        N  0.68090067  0.54539982  0.32199826     0.16300
C105        C  0.68860356  0.54917979  0.37433357    -0.30200
H106        H  0.68261229  0.58445299  0.39976818     0.18200
C107        C  0.83606442  0.40897355  0.36800914    -0.29200
N108        N  0.86667444  0.43421488  0.40592641     0.15000
C109        C  0.83277841  0.46271892  0.44011649    -0.29200
C110        C  0.67857566  0.34464137  0.40953720    -0.29500
N111        N  0.66687665  0.34792915  0.46143895     0.15500
H112        H  0.68310527  0.30848656  0.38514223     0.18100
C113        C  0.67120797  0.39828720  0.48049746    -0.29500
H114        H  0.66940208  0.41123362  0.52172170     0.18100
H115        H  0.84648541  0.48857893  0.47274080     0.18100
H116        H  0.68727553  0.48130592  0.26197314     0.18200
H117        H  0.85275954  0.38551382  0.33439496     0.18200
C118        C  0.66553748  0.74254138  0.19822803     0.88500
C119        C  0.63041184  0.77288702  0.24152861    -0.51700
C120        C  0.59849381  0.74105775  0.27028381     0.11400
C121        C  0.60398443  0.68291019  0.25241984     0.22400
C122        C  0.69862803  0.70229519  0.22656666    -0.52400
C123        C  0.66616831  0.67056477  0.25458416     0.11600
C124        C  0.62298842  0.71045364  0.16533423    -0.52000
C125        C  0.59095716  0.67929208  0.19402827     0.12100
H126        H  0.62990043  0.81510484  0.24804512     0.16600
H127        H  0.57658618  0.65792442  0.27503823     0.02400
H128        H  0.74354978  0.69848321  0.22370671     0.16900
H129        H  0.61981263  0.71091400  0.12315491     0.16700
C130        C  0.67244315  0.14820993  0.58110009     0.88500
C131        C  0.63587600  0.11611318  0.54127794    -0.51700
C132        C  0.59946722  0.14620652  0.51596470     0.11400
C133        C  0.60433865  0.20497057  0.53234216     0.22400
C134        C  0.70163924  0.18865721  0.54883723    -0.52400
C135        C  0.66563159  0.21878533  0.52362845     0.11600
C136        C  0.63116903  0.17990384  0.61742440    -0.52000
C137        C  0.59579143  0.20955388  0.59164703     0.12100
H138        H  0.63779986  0.07394378  0.53459260     0.16600
H139        H  0.57569200  0.22985359  0.51187038     0.02400
H140        H  0.74638261  0.19398765  0.54735492     0.16900
H141        H  0.63140477  0.18052315  0.65985350     0.16700
C142        C  0.39928073  0.73384156  0.44396742     0.32000
C143        C  0.49655771  0.73610201  0.38712420     0.32000
C144        C  0.39663073  0.71235825  0.38629676    -0.04200
C145        C  0.42418370  0.78843318  0.43900567    -0.04900
C146        C  0.44868846  0.70396481  0.46475320    -0.04800
C147        C  0.44650396  0.71305117  0.35799801    -0.04200
C148        C  0.47485891  0.78932411  0.41039895    -0.04900
C149        C  0.49768194  0.70453905  0.43500844    -0.04800
C150        C  0.43647101  0.69445731  0.30750906    -0.30200
N151        N  0.38160582  0.68421373  0.30379998     0.16300
C152        C  0.35648724  0.69488745  0.35142148    -0.30200
H153        H  0.31255627  0.69054545  0.35973710     0.18200
C154        C  0.48000799  0.83822415  0.39313611    -0.29200
N155        N  0.43491291  0.86652824  0.40929831     0.15000
C156        C  0.39985072  0.83678728  0.43603395    -0.29200
C157        C  0.53896149  0.68396208  0.46322859    -0.29500
N158        N  0.51687389  0.67132856  0.50953026     0.15500
H159        H  0.58277624  0.68226060  0.45292154     0.18100
C160        C  0.46212058  0.68435341  0.51157674    -0.29500
H161        H  0.43495762  0.68209445  0.54543798     0.18100
H162        H  0.35805934  0.84801427  0.44856039     0.18100
H163        H  0.46626202  0.69031895  0.27527758     0.18200
H164        H  0.51205541  0.85135668  0.36716692     0.18200
C165        C  0.22394172  0.66770088  0.11501236     0.88500
C166        C  0.18932503  0.62686455  0.14244709    -0.51700
C167        C  0.22059876  0.59733653  0.17297308     0.11400
C168        C  0.28264675  0.60996429  0.17163632     0.22400
C169        C  0.25423942  0.69863539  0.15964795    -0.52400
C170        C  0.28510768  0.66829968  0.18929301     0.11600
C171        C  0.26985241  0.63636510  0.08364809    -0.52000
C172        C  0.30006027  0.60538340  0.11356743     0.12100
H173        H  0.14436464  0.62414130  0.14081126     0.16600
H174        H  0.30722474  0.58476447  0.19578125     0.02400
H175        H  0.25031338  0.74056710  0.16802424     0.16900
H176        H  0.27720896  0.63797251  0.04189350     0.16700
C177        C  0.70107834  0.61753076  0.64634961     0.88500
C178        C  0.73657594  0.58017621  0.60913641    -0.51700
C179        C  0.70561240  0.54414976  0.58010915     0.11400
C180        C  0.64269958  0.54874755  0.59149141     0.22400
C181        C  0.65858877  0.64125791  0.61106778    -0.52400
C182        C  0.62824570  0.60508834  0.58225329     0.11600
C183        C  0.66687860  0.58196704  0.68001492    -0.52000
C184        C  0.63551227  0.54636875  0.65124755     0.12100
H185        H  0.78132200  0.58348806  0.60441664     0.16600
H186        H  0.61764549  0.51955114  0.56782881     0.02400
H187        H  0.65411770  0.68291516  0.60790052     0.16900
H188        H  0.66488355  0.58668681  0.72249379     0.16700
C189        C  0.48964917  0.42171862  0.09853736     0.32000
C190        C  0.39980000  0.48691293  0.10269672     0.32000
C191        C  0.49304224  0.47006279  0.13755650    -0.04200
C192        C  0.47641031  0.44574245  0.04724808    -0.04900
C193        C  0.43414426  0.39744819  0.11291980    -0.04800
C194        C  0.44717863  0.50409664  0.13946613    -0.04200
C195        C  0.43005848  0.47889995  0.04934182    -0.04900
C196        C  0.38856094  0.43061030  0.11604642    -0.04800
C197        C  0.46779036  0.55329768  0.15360217    -0.30200
N198        N  0.52300064  0.54952904  0.16202104     0.16300
C199        C  0.53867807  0.49942089  0.15183544    -0.30200
H200        H  0.58142932  0.48616387  0.14958091     0.18200
C201        C  0.42507565  0.49694357  0.00070440    -0.29200
N202        N  0.46694519  0.47609117  0.96972698     0.15000
C203        C  0.49842341  0.44459291  0.99727431    -0.29200
C204        C  0.34353069  0.40168943  0.13091425    -0.29500
N205        N  0.36099828  0.35211647  0.13573706     0.15500
H206        H  0.30118872  0.41521516  0.13725884     0.18100
C207        C  0.41607856  0.34890283  0.12440470    -0.29500
H208        H  0.44113858  0.31407451  0.12547288     0.18100
H209        H  0.53384568  0.42203868  0.98179736     0.18100
H210        H  0.44494105  0.58952425  0.15391203     0.18200
H211        H  0.39304317  0.52255827  0.98834058     0.18200
C212        C  0.49414903  0.47878729  0.67182552     0.32000
C213        C  0.40866739  0.41270766  0.69184324     0.32000
C214        C  0.50536057  0.42091169  0.65797317    -0.04200
C215        C  0.47452517  0.47979792  0.72949876    -0.04900
C216        C  0.43979316  0.48732883  0.64338927    -0.04800
C217        C  0.46230155  0.38708750  0.66844614    -0.04200
C218        C  0.43058805  0.44589406  0.73921459    -0.04900
C219        C  0.39582816  0.45436794  0.65398398    -0.04800
C220        C  0.48179347  0.33716751  0.65614814    -0.30200
N221        N  0.53525639  0.34033100  0.63845312     0.16300
C222        C  0.54980190  0.39126416  0.63931235    -0.30200
H223        H  0.59012488  0.40552313  0.62766713     0.18200
C224        C  0.42392944  0.44557123  0.79225825    -0.29200
N225        N  0.46226170  0.47784509  0.81513018     0.15000
C226        C  0.49381324  0.49886030  0.77771449    -0.29200
C227        C  0.34908178  0.47430123  0.63215867    -0.29500
N228        N  0.36447241  0.51720900  0.60772170     0.15500
H229        H  0.30700777  0.45987822  0.63523496     0.18100
C230        C  0.41953941  0.52521344  0.61402547    -0.29500
H231        H  0.44207662  0.55833425  0.60097099     0.18100
H232        H  0.52982464  0.52336233  0.78505394     0.18100
H233        H  0.45883293  0.30157463  0.66023731     0.18200
H234        H  0.39582040  0.42115841  0.81288317     0.18200
C235        C  0.07038675  0.84552996  0.00195692     0.44500
N236        N  0.00891213  0.86699472  0.94790134     0.03400
C237        C  0.00695858  0.08900571  0.80913755    -0.04500
H238        H  0.97424867  0.12367125  0.00448496     0.08900
C239        C  0.79282020  0.02727716  0.98688589    -0.04800
Co240      Co  0.04188811  0.96114715  0.89262029     0.74200
N241        N  0.99382606  0.05518147  0.95270442    -0.24000
Co242      Co  0.93240999  0.04908340  0.89434700     0.74100
C243        C  0.81082959  0.07863662  0.00955088     0.44600
N244        N  0.84290482  0.89589037  0.95283933     0.03000
N245        N  0.86984895  0.04963895  0.95064023     0.03100
N246        N  0.08144655  0.03641505  0.81203804    -0.44900
H247        H  0.12545738  0.91542576  0.98442171     0.08900
N248        N  0.03518887  0.02116686  0.95185124     0.03400
N249        N  0.87149400  0.03910779  0.83578881     0.03100
C250        C  0.82032048  0.04695681  0.76892844     0.44700
N251        N  0.88447331  0.86214788  0.95249896    -0.23500
C252        C  0.07805148  0.89217295  0.79132527    -0.04400
N253        N  0.02232100  0.83069607  0.97925521    -0.44600
N254        N  0.86358140  0.06832519  0.79603194    -0.44800
C255        C  0.05933635  0.84307981  0.76503040     0.44500
N256        N  0.03863999  0.01849520  0.83867782     0.03400
N257        N  0.88527834  0.85160372  0.83791678    -0.23500
N258        N  0.04589019  0.90477129  0.94744549    -0.24000
N259        N  0.84221647  0.88331466  0.83824043     0.03000
H260        H  0.90401842  0.77725707  0.79675207     0.08900
H261        H  0.76766697  0.97556099  0.78619662     0.08900
N262        N  0.99513913  0.04962669  0.83845801    -0.24000
N263        N  0.83243816  0.01219180  0.95090870    -0.23700
N264        N  0.00812557  0.86131582  0.83351003     0.03400
C265        C  0.05145236  0.07395757  0.01862755     0.44800
C266        C  0.87722364  0.83301413  0.99343946    -0.04900
N267        N  0.83564340  0.00012725  0.83624676    -0.23700
H268        H  0.75433960  0.00687159  0.99337127     0.08900
N269        N  0.07059011  0.03111294  0.99033270    -0.44900
H270        H  0.90364269  0.80121831  0.00289264     0.08900
C271        C  0.82452042  0.82113050  0.77959754     0.44600
C272        C  0.08663260  0.89445482  0.98041372    -0.04400
Co273      Co  0.94670778  0.85969668  0.89309916     0.73800
N274        N  0.80707247  0.89151142  0.99212276    -0.44600
C275        C  0.06415139  0.08053715  0.79169443     0.44900
N276        N  0.01626918  0.82592793  0.79347616    -0.44600
Co277      Co  0.83698633  0.94779785  0.89454858     0.73900
C278        C  0.80156879  0.00206204  0.79557704    -0.04900
C279        C  0.00076216  0.09041967  0.99384024    -0.04500
N280        N  0.04377894  0.90045986  0.83311663    -0.24000
N281        N  0.85827101  0.08987520  0.98448256    -0.44800
H282        H  0.98266522  0.12438005  0.80902960     0.08900
C283        C  0.87787659  0.81153952  0.80221900    -0.04900
Cl284      Cl  0.93949701  0.95445314  0.89365838    -0.47900
C285        C  0.82622520  0.85309018  0.01976248     0.44600
H286        H  0.11225891  0.91695345  0.78126639     0.08900
N287        N  0.80390816  0.86578168  0.80442599    -0.44600
C288        C  0.47186971  0.48108599  0.91591185    -0.11200
C289        C  0.47070530  0.48228760  0.86912195    -0.12800
C290        C  0.73189007  0.65888895  0.67685996    -0.16500
C291        C  0.75155990  0.69692145  0.70063700     0.07600
C292        C  0.77241049  0.74297058  0.72779841     0.09400
C293        C  0.79266818  0.78094726  0.75115116    -0.17300
C294        C  0.59214660  0.51437190  0.67505857    -0.14400
C295        C  0.54035549  0.51484293  0.65666750    -0.29600
H296        H  0.60234710  0.49118801  0.70713282     0.14600
H297        H  0.53179601  0.54081055  0.62643339     0.15200
C298        C  0.10679406  0.80881521  0.02417277    -0.16500
C299        C  0.13434702  0.77523808  0.04193088     0.07600
C300        C  0.16490446  0.73508734  0.06349975     0.09400
C301        C  0.19094221  0.70246186  0.08437290    -0.17300
C302        C  0.34610493  0.57046330  0.09350788    -0.14400
C303        C  0.34864063  0.52152846  0.10830817    -0.29600
H304        H  0.37932259  0.58592176  0.07012516     0.14600
H305        H  0.31314869  0.50712843  0.12959835     0.15200
C306        C  0.58909968  0.61855457  0.54197050    -0.14400
C307        C  0.54875093  0.65416809  0.55166629    -0.29600
H308        H  0.59363289  0.59858147  0.50316220     0.14600
H309        H  0.54055243  0.67088988  0.59134354     0.15200
C310        C  0.35592793  0.66468334  0.25645198    -0.14400
C311        C  0.31231415  0.68898534  0.23773867    -0.29600
H312        H  0.37580534  0.63237678  0.23343936     0.14600
H313        H  0.29669164  0.72477202  0.25825921     0.15200
C314        C  0.71096196  0.11850108  0.61214706    -0.16500
C315        C  0.74003617  0.10025164  0.64441326     0.07600
C316        C  0.77119590  0.08231226  0.68633292     0.09400
C317        C  0.79522733  0.06723597  0.72360451    -0.17300
C318        C  0.55784657  0.24822284  0.61817593    -0.14400
C319        C  0.57208699  0.29864979  0.62015223    -0.29600
H320        H  0.51809400  0.23544257  0.63294475     0.14600
H321        H  0.61326375  0.30885834  0.60615818     0.15200
C322        C  0.79540064  0.83179536  0.06211598    -0.16500
C323        C  0.76697791  0.81505853  0.09652337     0.07600
C324        C  0.73183067  0.79462908  0.13515192     0.09400
C325        C  0.70146038  0.77421309  0.16574384    -0.17300
C326        C  0.55155551  0.64070445  0.17116439    -0.14400
C327        C  0.56130149  0.59032828  0.17694187    -0.29600
H328        H  0.51531440  0.65342495  0.15108549     0.14600
H329        H  0.60076074  0.57931499  0.19270847     0.15200
C330        C  0.55646689  0.75939711  0.31051773    -0.14400
C331        C  0.54992154  0.73442271  0.35446390    -0.29600
H332        H  0.52588016  0.78746554  0.29997446     0.14600
H333        H  0.58184211  0.70694885  0.36376079     0.15200
C334        C  0.71430713  0.51678520  0.48695109    -0.14400
C335        C  0.72824010  0.50854808  0.53616466    -0.29600
H336        H  0.69227283  0.55272228  0.48150699     0.14600
H337        H  0.75134150  0.47400812  0.54438612     0.15200
C338        C  0.65188630  0.30562176  0.49188539    -0.14400
C339        C  0.68333938  0.26242838  0.49259085    -0.29600
H340        H  0.61483458  0.31038998  0.51639085     0.14600
H341        H  0.72302870  0.26002987  0.47168632     0.15200
C342        C  0.65871721  0.58573505  0.29326956    -0.14400
C343        C  0.68910182  0.62771598  0.28322414    -0.29600
H344        H  0.61673606  0.58086040  0.27938751     0.14600
H345        H  0.73222840  0.62973543  0.29498363     0.15200
C346        C  0.18170070  0.23706102  0.73230276    -0.16500
C347        C  0.15487824  0.20623464  0.75556530     0.07600
C348        C  0.12599587  0.16214716  0.77198807     0.09400
C349        C  0.10029881  0.12346463  0.78142367    -0.17300
C350        C  0.34355802  0.34310833  0.66178323    -0.14400
C351        C  0.36176946  0.37502516  0.70179724    -0.29600
H352        H  0.36342788  0.34603907  0.62370937     0.14600
H353        H  0.34333908  0.37408222  0.74062709     0.15200
C354        C  0.77827524  0.11852077  0.03899648    -0.16500
C355        C  0.75608470  0.15577866  0.06275171     0.07600
C356        C  0.73173483  0.20011543  0.09109041     0.09400
C357        C  0.70807812  0.23494335  0.11735870    -0.17300
C358        C  0.55084026  0.36730297  0.14723482    -0.14400
C359        C  0.53905055  0.38502188  0.10063203    -0.29600
H360        H  0.52408301  0.38026994  0.18037619     0.14600
H361        H  0.56434597  0.37437805  0.06596566     0.15200
C362        C  0.67628894  0.36701542  0.27613529    -0.14400
C363        C  0.72525488  0.37545742  0.29994940    -0.29600
H364        H  0.64024158  0.38738558  0.29390342     0.14600
H365        H  0.76281137  0.35587827  0.28483185     0.15200
C366        C  0.42674148  0.96179027  0.38446936    -0.11200
C367        C  0.42589441  0.91740419  0.39595505    -0.12800
C368        C  0.50925421  0.15059595  0.47326744    -0.14400
C369        C  0.55810191  0.12551760  0.47678001    -0.29600
H370        H  0.49976675  0.18293737  0.50188521     0.14600
H371        H  0.56910438  0.09239451  0.44974038     0.15200
C372        C  0.28948379  0.18079378  0.53115333    -0.14400
C373        C  0.30127293  0.18185635  0.58194696    -0.29600
H374        H  0.25359998  0.20207417  0.51896373     0.14600
H375        H  0.33427681  0.15828656  0.59611116     0.15200
C376        C  0.54296940  0.25596390  0.29747734    -0.14400
C377        C  0.55559459  0.23545189  0.24911362    -0.29600
H378        H  0.56585448  0.28932962  0.31456274     0.14600
H379        H  0.53729974  0.19864009  0.23450730     0.15200
C380        C  0.16112376  0.72873497  0.61129705    -0.16500
C381        C  0.13645214  0.75742729  0.64370181     0.07600
C382        C  0.10874943  0.78846723  0.68468692     0.09400
C383        C  0.08586861  0.81364827  0.72092275    -0.17300
C384        C  0.28226090  0.57097084  0.60365311    -0.14400
C385        C  0.32966570  0.55171416  0.58161435    -0.29600
H386        H  0.26887577  0.55913767  0.64162767     0.14600
H387        H  0.34655637  0.56804325  0.54692701     0.15200
C388        C  0.32148653  0.68436344  0.48254420    -0.14400
C389        C  0.34557667  0.73085423  0.47607790    -0.29600
H390        H  0.34101101  0.64974506  0.46317869     0.14600
H391        H  0.32770468  0.76648668  0.49468884     0.15200
C392        C  0.92473979  0.43562310  0.40561870    -0.11200
C393        C  0.97465803  0.43732638  0.40335000    -0.12800
C394        C  0.19854824  0.32898599  0.56551639    -0.14400
C395        C  0.22287682  0.32407066  0.51763696    -0.29600
H396        H  0.16748419  0.35903204  0.57499285     0.14600
H397        H  0.24996180  0.29116960  0.50669694     0.15200
C398        C  0.19804250  0.56237868  0.21127374    -0.14400
C399        C  0.21464094  0.56942406  0.26124471    -0.29600
H400        H  0.17131418  0.53011483  0.19828385     0.14600
H401        H  0.23773114  0.60447059  0.27358658     0.15200
C402        C  0.16332550  0.57827293  0.47176602    -0.14400
C403        C  0.18213131  0.52913156  0.47258717    -0.29600
H404        H  0.13389262  0.58854469  0.44269682     0.14600
H405        H  0.20891591  0.52089712  0.50458664     0.15200
C406        C  0.16592186  0.16400374  0.17494262    -0.16500
C407        C  0.13825248  0.14125479  0.14132964     0.07600
C408        C  0.10604992  0.11825580  0.09963720     0.09400
C409        C  0.07982072  0.09902655  0.06308540    -0.17300
C410        C  0.32742375  0.30967923  0.15081835    -0.14400
C411        C  0.29701598  0.31449555  0.19519548    -0.29600
H412        H  0.33063421  0.27219511  0.12822321     0.14600
H413        H  0.29917002  0.35051760  0.22025619     0.15200
C414        C  0.31109628  0.19396034  0.31738945    -0.14400
C415        C  0.34097231  0.14924141  0.31649512    -0.29600
H416        H  0.32089833  0.22504770  0.34700860     0.14600
H417        H  0.33424485  0.11788108  0.28639883     0.15200
C418        C  0.16520362  0.31259897  0.31429179    -0.14400
C419        C  0.18288270  0.36168905  0.31009857    -0.29600
H420        H  0.13678958  0.30352076  0.34563958     0.14600
H421        H  0.20930358  0.36899791  0.27664443     0.15200
loop_ 
_geom_bond_atom_site_label_1 
_geom_bond_atom_site_label_2 
_geom_bond_distance 
_geom_bond_site_symmetry_2 
_ccdc_geom_bond_type 
C1            C2   1.544       .  S
C1            C7   1.536       .  S
C1            C5   1.542       .  S
C1          C406   1.478       .  S
C2            H9   1.085       .  S
C2            C3   1.373       .  D
C3            C4   1.546       .  S
C3          C414   1.494       .  S
C4            C8   1.530       .  S
C4            C6   1.537       .  S
C4           H10   1.112       .  S
C5           H11   1.086       .  S
C5            C6   1.363       .  D
C6          C418   1.484       .  S
C7           H12   1.086       .  S
C7            C8   1.365       .  D
C8          C411   1.477       .  S
C13         C419   1.517       .  S
C13          C15   1.535       .  S
C13          C17   1.537       .  S
C13          C16   1.537       .  S
C14         C403   1.517       .  S
C14          C18   1.537       .  S
C14          C20   1.535       .  S
C14          C19   1.534       .  S
C15          C23   1.384       .  A
C15          C18   1.399       .  A
C16          C27   1.373       .  A
C16          C19   1.403       .  A
C17          C31   1.383       .  A
C17          C20   1.400       .  A
C18          C21   1.381       .  A
C19          C25   1.372       .  A
C20          C28   1.384       .  A
C21          N22   1.353       .  A
C21          H34   1.082       .  S
N22          C23   1.354       .  A
N22         C399   1.436       .  S
C23          H24   1.082       .  S
C25          N26   1.356       .  A
C25          H35   1.082       .  S
N26          C27   1.357       .  A
N26         C393   1.398   1_455  S
C27          H33   1.083       .  S
C28          N29   1.351       .  A
C28          H30   1.082       .  S
N29          C31   1.350       .  A
N29         C395   1.435       .  S
C31          H32   1.082       .  S
C36          C37   1.544       .  S
C36          C42   1.538       .  S
C36          C40   1.542       .  S
C36         C380   1.480       .  S
C37          H44   1.085       .  S
C37          C38   1.372       .  D
C38          C39   1.539       .  S
C38         C388   1.496       .  S
C39          C43   1.535       .  S
C39          C41   1.542       .  S
C39          H45   1.110       .  S
C40          H46   1.086       .  S
C40          C41   1.367       .  D
C41         C402   1.489       .  S
C42          H47   1.087       .  S
C42          C43   1.362       .  D
C43         C384   1.482       .  S
C48         C415   1.530       .  S
C48          C50   1.528       .  S
C48          C52   1.532       .  S
C48          C51   1.549       .  S
C49         C368   1.519       .  S
C49          C53   1.521       .  S
C49          C55   1.523       .  S
C49          C54   1.540       .  S
C50          C58   1.373       .  A
C50          C53   1.385       .  A
C51          C62   1.386       .  A
C51          C54   1.433       .  A
C52          C66   1.378       .  A
C52          C55   1.396       .  A
C53          C56   1.364       .  A
C54          C60   1.374       .  A
C55          C63   1.374       .  A
C56          N57   1.357       .  A
C56          H69   1.082       .  S
N57          C58   1.356       .  A
N57         C372   1.428       .  S
C58          H59   1.083       .  S
C60          N61   1.344       .  A
C60          H70   1.083       .  S
N61          C62   1.350       .  A
N61         C366   1.398   1_545  S
C62          H68   1.083       .  S
C63          N64   1.348       .  A
C63          H65   1.083       .  S
N64          C66   1.353       .  A
N64         C376   1.426       .  S
C66          H67   1.083       .  S
C71          C72   1.553       .  S
C71          C77   1.548       .  S
C71          C75   1.534       .  S
C71         C357   1.477       .  S
C72          H79   1.085       .  S
C72          C73   1.374       .  D
C73          C74   1.530       .  S
C73         C362   1.489       .  S
C74          C78   1.532       .  S
C74          C76   1.527       .  S
C74          H80   1.111       .  S
C75          H81   1.087       .  S
C75          C76   1.356       .  D
C76         C377   1.470       .  S
C77          H82   1.085       .  S
C77          C78   1.371       .  D
C78         C358   1.484       .  S
C83          C84   1.547       .  S
C83          C89   1.548       .  S
C83          C87   1.529       .  S
C83         C346   1.471       .  S
C84          H91   1.086       .  S
C84          C85   1.370       .  D
C85          C86   1.529       .  S
C85         C394   1.483       .  S
C86          C90   1.532       .  S
C86          C88   1.526       .  S
C86          H92   1.110       .  S
C87          H93   1.088       .  S
C87          C88   1.347       .  D
C88         C373   1.456       .  S
C89          H94   1.085       .  S
C89          C90   1.377       .  D
C90         C350   1.485       .  S
C95         C334   1.524       .  S
C95          C97   1.533       .  S
C95          C99   1.541       .  S
C95          C98   1.539       .  S
C96         C363   1.526       .  S
C96         C100   1.533       .  S
C96         C102   1.536       .  S
C96         C101   1.533       .  S
C97         C105   1.378       .  A
C97         C100   1.387       .  A
C98         C109   1.375       .  A
C98         C101   1.404       .  A
C99         C113   1.381       .  A
C99         C102   1.409       .  A
C100        C103   1.378       .  A
C101        C107   1.371       .  A
C102        C110   1.381       .  A
C103        N104   1.356       .  A
C103        H116   1.082       .  S
N104        C105   1.354       .  A
N104        C342   1.429       .  S
C105        H106   1.082       .  S
C107        N108   1.354       .  A
C107        H117   1.083       .  S
N108        C109   1.357       .  A
N108        C392   1.398       .  S
C109        H115   1.082       .  S
C110        N111   1.351       .  A
C110        H112   1.083       .  S
N111        C113   1.352       .  A
N111        C338   1.432       .  S
C113        H114   1.082       .  S
C118        C119   1.544       .  S
C118        C124   1.537       .  S
C118        C122   1.542       .  S
C118        C325   1.479       .  S
C119        H126   1.086       .  S
C119        C120   1.371       .  D
C120        C121   1.534       .  S
C120        C330   1.481       .  S
C121        C125   1.531       .  S
C121        C123   1.533       .  S
C121        H127   1.109       .  S
C122        H128   1.086       .  S
C122        C123   1.366       .  D
C123        C343   1.485       .  S
C124        H129   1.086       .  S
C124        C125   1.361       .  D
C125        C326   1.468       .  S
C130        C131   1.548       .  S
C130        C136   1.537       .  S
C130        C134   1.542       .  S
C130        C314   1.484       .  S
C131        H138   1.086       .  S
C131        C132   1.375       .  D
C132        C133   1.541       .  S
C132        C369   1.495       .  S
C133        C137   1.526       .  S
C133        C135   1.534       .  S
C133        H139   1.108       .  S
C134        H140   1.086       .  S
C134        C135   1.368       .  D
C135        C339   1.486       .  S
C136        H141   1.087       .  S
C136        C137   1.358       .  D
C137        C318   1.468       .  S
C142        C389   1.525       .  S
C142        C144   1.539       .  S
C142        C146   1.542       .  S
C142        C145   1.541       .  S
C143        C331   1.519       .  S
C143        C147   1.524       .  S
C143        C149   1.526       .  S
C143        C148   1.536       .  S
C144        C152   1.379       .  A
C144        C147   1.392       .  A
C145        C156   1.383       .  A
C145        C148   1.413       .  A
C146        C160   1.383       .  A
C146        C149   1.393       .  A
C147        C150   1.369       .  A
C148        C154   1.372       .  A
C149        C157   1.371       .  A
C150        N151   1.350       .  A
C150        H163   1.083       .  S
N151        C152   1.360       .  A
N151        C310   1.427       .  S
C152        H153   1.082       .  S
C154        N155   1.347       .  A
C154        H164   1.082       .  S
N155        C156   1.353       .  A
N155        C367   1.397       .  S
C156        H162   1.082       .  S
C157        N158   1.355       .  A
C157        H159   1.083       .  S
N158        C160   1.359       .  A
N158        C307   1.434       .  S
C160        H161   1.082       .  S
C165        C166   1.546       .  S
C165        C171   1.543       .  S
C165        C169   1.536       .  S
C165        C301   1.478       .  S
C166        H173   1.086       .  S
C166        C167   1.369       .  D
C167        C168   1.529       .  S
C167        C398   1.480       .  S
C168        C172   1.534       .  S
C168        C170   1.534       .  S
C168        H174   1.110       .  S
C169        H175   1.087       .  S
C169        C170   1.362       .  D
C170        C311   1.476       .  S
C171        H176   1.086       .  S
C171        C172   1.368       .  D
C172        C302   1.485       .  S
C177        C178   1.545       .  S
C177        C183   1.537       .  S
C177        C181   1.536       .  S
C177        C290   1.477       .  S
C178        H185   1.086       .  S
C178        C179   1.370       .  D
C179        C180   1.540       .  S
C179        C335   1.489       .  S
C180        C184   1.545       .  S
C180        C182   1.529       .  S
C180        H186   1.112       .  S
C181        H187   1.087       .  S
C181        C182   1.362       .  D
C182        C306   1.472       .  S
C183        H188   1.086       .  S
C183        C184   1.366       .  D
C184        C294   1.482       .  S
C189        C359   1.523       .  S
C189        C191   1.535       .  S
C189        C193   1.526       .  S
C189        C192   1.536       .  S
C190        C303   1.518       .  S
C190        C194   1.535       .  S
C190        C196   1.538       .  S
C190        C195   1.537       .  S
C191        C199   1.372       .  A
C191        C194   1.407       .  A
C192        C203   1.375   1_554  A
C192        C195   1.402       .  A
C193        C207   1.375       .  A
C193        C196   1.387       .  A
C194        C197   1.383       .  A
C195        C201   1.372       .  A
C196        C204   1.380       .  A
C197        N198   1.355       .  A
C197        H210   1.082       .  S
N198        C199   1.347       .  A
N198        C327   1.431       .  S
C199        H200   1.083       .  S
C201        N202   1.355   1_554  A
C201        H211   1.082   1_554  S
N202        C203   1.357       .  A
N202        C288   1.399       .  S
C203        H209   1.082       .  S
C204        N205   1.359       .  A
C204        H206   1.082       .  S
N205        C207   1.353       .  A
N205        C410   1.432       .  S
C207        H208   1.083       .  S
C212        C295   1.514       .  S
C212        C214   1.526       .  S
C212        C216   1.534       .  S
C212        C215   1.542       .  S
C213        C351   1.520       .  S
C213        C217   1.539       .  S
C213        C219   1.538       .  S
C213        C218   1.529       .  S
C214        C222   1.370       .  A
C214        C217   1.390       .  A
C215        C226   1.381       .  A
C215        C218   1.403       .  A
C216        C230   1.373       .  A
C216        C219   1.393       .  A
C217        C220   1.378       .  A
C218        C224   1.367       .  A
C219        C227   1.382       .  A
C220        N221   1.361       .  A
C220        H233   1.081       .  S
N221        C222   1.355       .  A
N221        C319   1.435       .  S
C222        H223   1.083       .  S
C224        N225   1.351       .  A
C224        H234   1.083       .  S
N225        C226   1.359       .  A
N225        C289   1.398       .  S
C226        H232   1.082       .  S
C227        N228   1.361       .  A
C227        H229   1.082       .  S
N228        C230   1.352       .  A
N228        C385   1.433       .  S
C230        H231   1.082       .  S
C235        N253   1.346   1_554  A
C235        C272   1.465   1_554  S
C235        C298   1.445       .  S
N236        N253   1.324       .  A
N236        N258   1.319       .  A
N236       Co273   2.070   1_455  S
C237        N262   1.337   1_455  A
C237        H282   1.082   1_455  S
C237        C275   1.451       .  S
H238        C279   1.081   1_654  S
C239        N263   1.349       .  A
C239        H268   1.082       .  S
C239        C243   1.469   1_556  S
Co240       N258   2.103       .  S
Co240       N248   2.081   1_565  S
Co240       N280   2.093       .  S
Co240       N256   2.104   1_565  S
Co240      Cl284   2.470   1_455  S
N241        C279   1.347   1_655  A
N241        N248   1.324   1_655  A
N241       Co242   2.119       .  S
Co242       N245   2.066       .  S
Co242       N262   2.063       .  S
Co242       N249   2.119       .  S
Co242      Cl284   2.439   1_545  S
C243        N281   1.343   1_554  A
C243        C354   1.446       .  S
N244        N251   1.324       .  A
N244        N274   1.326       .  A
N244       Co277   2.089       .  S
N245        N263   1.319       .  A
N245        N281   1.322       .  A
N246        C275   1.355       .  A
N246        N256   1.329       .  A
H247        C272   1.082       .  S
N248        N269   1.325       .  A
N249        N267   1.324       .  A
N249        N254   1.331       .  A
C250        N254   1.355       .  A
C250        C278   1.456       .  S
C250        C317   1.453       .  S
N251        C266   1.347       .  A
N251       Co273   2.114       .  S
C252        N280   1.343       .  A
C252        H286   1.082       .  S
C252        C255   1.458       .  S
C255        N276   1.351       .  A
C255        C383   1.448       .  S
N256        N262   1.319   1_455  A
N257        C283   1.336       .  A
N257        N259   1.318       .  A
N257       Co273   2.064       .  S
N258        C272   1.346       .  A
N259        N287   1.331       .  A
N259       Co277   2.112       .  S
H260        C283   1.082       .  S
H261        C278   1.082   1_565  S
N263       Co277   2.110   1_545  S
N264        N276   1.328       .  A
N264        N280   1.324       .  A
N264       Co273   2.109   1_455  S
C265        N269   1.346   1_554  A
C265        C279   1.464   1_554  S
C265        C409   1.446       .  S
C266        H270   1.082   1_556  S
C266        C285   1.464   1_556  S
N267        C278   1.342       .  A
N267       Co277   2.091   1_545  S
C271        N287   1.357       .  A
C271        C283   1.448       .  S
C271        C293   1.445       .  S
Co273      Cl284   2.443       .  S
N274        C285   1.348   1_556  A
C275        C349   1.444       .  S
Co277      Cl284   2.473       .  S
C285        C322   1.448       .  S
C288        C289   1.203       .  T
C290        C291   1.212       .  T
C291        C292   1.422       .  S
C292        C293   1.211       .  T
C294        H296   1.086       .  S
C294        C295   1.341       .  D
C295        H297   1.086       .  S
C298        C299   1.211       .  T
C299        C300   1.421       .  S
C300        C301   1.212       .  T
C302        H304   1.085       .  S
C302        C303   1.346       .  D
C303        H305   1.087       .  S
C306        H308   1.086       .  S
C306        C307   1.341       .  D
C307        H309   1.087       .  S
C310        H312   1.086       .  S
C310        C311   1.338       .  D
C311        H313   1.087       .  S
C314        C315   1.216       .  T
C315        C316   1.428       .  S
C316        C317   1.216       .  T
C318        H320   1.083       .  S
C318        C319   1.339       .  D
C319        H321   1.087       .  S
C322        C323   1.213       .  T
C323        C324   1.423       .  S
C324        C325   1.213       .  T
C326        H328   1.085       .  S
C326        C327   1.337       .  D
C327        H329   1.085       .  S
C330        H332   1.084       .  S
C330        C331   1.348       .  D
C331        H333   1.086       .  S
C334        H336   1.086       .  S
C334        C335   1.344       .  D
C335        H337   1.085       .  S
C338        H340   1.083       .  S
C338        C339   1.346       .  D
C339        H341   1.086       .  S
C342        H344   1.081       .  S
C342        C343   1.344       .  D
C343        H345   1.086       .  S
C346        C347   1.210       .  T
C347        C348   1.419       .  S
C348        C349   1.210       .  T
C350        H352   1.087       .  S
C350        C351   1.342       .  D
C351        H353   1.084       .  S
C354        C355   1.212       .  T
C355        C356   1.422       .  S
C356        C357   1.212       .  T
C358        H360   1.087       .  S
C358        C359   1.347       .  D
C359        H361   1.085       .  S
C362        H364   1.087       .  S
C362        C363   1.347       .  D
C363        H365   1.085       .  S
C366        C367   1.202       .  T
C368        H370   1.086       .  S
C368        C369   1.349       .  D
C369        H371   1.084       .  S
C372        H374   1.087       .  S
C372        C373   1.336       .  D
C373        H375   1.085       .  S
C376        H378   1.087       .  S
C376        C377   1.338       .  D
C377        H379   1.086       .  S
C380        C381   1.213       .  T
C381        C382   1.423       .  S
C382        C383   1.213       .  T
C384        H386   1.086       .  S
C384        C385   1.341       .  D
C385        H387   1.086       .  S
C388        H390   1.087       .  S
C388        C389   1.350       .  D
C389        H391   1.084       .  S
C392        C393   1.203       .  T
C394        H396   1.086       .  S
C394        C395   1.347       .  D
C395        H397   1.084       .  S
C398        H400   1.085       .  S
C398        C399   1.347       .  D
C399        H401   1.088       .  S
C402        H404   1.085       .  S
C402        C403   1.345       .  D
C403        H405   1.087       .  S
C406        C407   1.212       .  T
C407        C408   1.422       .  S
C408        C409   1.212       .  T
C410        H412   1.086       .  S
C410        C411   1.339       .  D
C411        H413   1.086       .  S
C414        H416   1.087       .  S
C414        C415   1.355       .  D
C415        H417   1.085       .  S
C418        H420   1.085       .  S
C418        C419   1.345       .  D
C419        H421   1.087       .  S
