geometry optimzed in LAMMPS
_audit_creation_date              2020-11-30 
_audit_creation_method            'lammps2cif' 
_symmetry_space_group_name_H-M    'P1' 
_symmetry_Int_Tables_number       1 
_symmetry_cell_setting            triclinic 
loop_ 
_symmetry_equiv_pos_as_xyz 
  x,y,z 
_cell_length_a                    43.016112330352875 
_cell_length_b                    43.13038337659141 
_cell_length_c                    43.05651564843684 
_cell_angle_alpha                 90.10002547348594 
_cell_angle_beta                  90.12688177590756 
_cell_angle_gamma                 89.97337656577967 
loop_ 
_atom_site_label 
_atom_site_type_symbol 
_atom_site_fract_x 
_atom_site_fract_y 
_atom_site_fract_z 
_atom_site_charge 
C1          C  0.51575160  0.24435707  0.25607725     0.00080
C2          C  0.48450058  0.24732749  0.25361353     0.00080
C3          C  0.51580880  0.74634355  0.24864515     0.00080
C4          C  0.48451097  0.74819957  0.25092599     0.00080
C5          C  0.51736629  0.25419055  0.75733160     0.00080
C6          C  0.48579480  0.25459543  0.75724644     0.00080
C7          C  0.25313565  0.24753861  0.51715531     0.00080
C8          C  0.25325891  0.24810312  0.48571280     0.00080
C9          C  0.24725285  0.98472418  0.75568447     0.00080
C10         C  0.24859443  0.01610918  0.75534414     0.00080
O11         O  0.29334494  0.16796039  0.86810131    -0.82280
C12         C  0.33284126  0.23583752  0.76235845     0.97070
O13         O  0.33894967  0.24209787  0.79021211    -0.71400
O14         O  0.29012992  0.24578335  0.82479750    -0.74990
Al15       Al  0.32753832  0.22285043  0.82798987     1.48980
C16         C  0.26298438  0.23764894  0.83194491     0.92330
O17         O  0.25435969  0.17454507  0.78929928    -0.81210
O18         O  0.33270212  0.13155462  0.79515620    -0.74770
Al19       Al  0.27639070  0.17194166  0.82719421     1.90120
O20         O  0.29074513  0.16023655  0.75680809    -0.73840
O21         O  0.36999046  0.18090666  0.78809047    -0.73690
O22         O  0.32537718  0.20887237  0.75405679    -0.79350
O23         O  0.36786954  0.20487185  0.83284958    -0.77550
O24         O  0.31091563  0.18865971  0.81092242    -1.13690
O25         O  0.31833039  0.21213942  0.86945358    -0.72880
C26         C  0.30480961  0.19031728  0.88332569     0.97840
C27         C  0.26288503  0.16681044  0.76245657     0.94230
Al28       Al  0.32833347  0.17170667  0.77692878     1.55560
O29         O  0.25660172  0.20981399  0.83759693    -0.77500
C30         C  0.38352441  0.19412833  0.81043934     0.98400
C31         C  0.31028182  0.11645738  0.80661248     0.93280
O32         O  0.28773480  0.13037478  0.81902597    -0.82820
O33         O  0.16862196  0.36538907  0.79377099    -0.82280
C34         C  0.23797232  0.26046735  0.83221393     0.97070
O35         O  0.24383103  0.28814244  0.83938757    -0.71400
O36         O  0.24745420  0.32257474  0.79078591    -0.74990
Al37       Al  0.22421700  0.32597521  0.82769429     1.48980
C38         C  0.23959445  0.33003772  0.76367718     0.92330
O39         O  0.17756431  0.28788573  0.75361931    -0.81210
O40         O  0.13296820  0.29233857  0.83124747    -0.74770
Al41       Al  0.17365504  0.32513210  0.77601882     1.90120
O42         O  0.16269654  0.25496078  0.78929826    -0.73840
O43         O  0.18203371  0.28564090  0.86874658    -0.73690
O44         O  0.21105338  0.25225692  0.82428066    -0.79350
O45         O  0.20562138  0.33063922  0.86777275    -0.77550
O46         O  0.19023814  0.30880369  0.81050064    -1.13690
O47         O  0.21340636  0.36770163  0.81793933    -0.72880
C48         C  0.19136582  0.38103229  0.80388218     0.97840
C49         C  0.16988998  0.26099524  0.76172688     0.94230
Al50       Al  0.17349420  0.27461896  0.82717010     1.55560
O51         O  0.21184895  0.33649903  0.75709778    -0.77500
C52         C  0.19445408  0.30806537  0.88282672     0.98400
C53         C  0.11767003  0.30280108  0.80842029     0.93280
O54         O  0.13164950  0.31571601  0.78619857    -0.82820
O55         O  0.33324094  0.36566444  0.70892314    -0.82280
C56         C  0.26415171  0.26030205  0.66919102     0.97070
O57         O  0.25804028  0.28813824  0.66305888    -0.71400
O58         O  0.25472822  0.32233879  0.71202683    -0.74990
Al59       Al  0.27759815  0.32587346  0.67496709     1.48980
C60         C  0.26273289  0.32986165  0.73909777     0.92330
O61         O  0.32530977  0.28760554  0.74813070    -0.81210
O62         O  0.36884396  0.29262562  0.67010901    -0.74770
Al63       Al  0.32859888  0.32509366  0.72610331     1.90120
O64         O  0.33962724  0.25483871  0.71192261    -0.73840
O65         O  0.31942251  0.28605179  0.63263510    -0.73690
O66         O  0.29110381  0.25205628  0.67693578    -0.79350
O67         O  0.29576216  0.33094353  0.63495926    -0.77550
O68         O  0.31175237  0.30877288  0.69158827    -1.13690
O69         O  0.28850574  0.36729844  0.68464742    -0.72880
C70         C  0.31066898  0.38101656  0.69807468     0.97840
C71         C  0.33295881  0.26075652  0.73970298     0.94230
Al72       Al  0.32846924  0.27475622  0.67423817     1.55560
O73         O  0.29054501  0.33612306  0.74557643    -0.77500
C74         C  0.30611880  0.30843022  0.61928098     0.98400
C75         C  0.38412204  0.30308850  0.69294539     0.93280
O76         O  0.37035064  0.31611881  0.71526059    -0.82820
O77         O  0.16946143  0.13259333  0.70538843    -0.82280
C78         C  0.23917491  0.23752108  0.66880463     0.97070
O79         O  0.24522565  0.20979785  0.66198194    -0.71400
O80         O  0.24850884  0.17444197  0.71024953    -0.74990
Al81       Al  0.22549825  0.17185001  0.67276641     1.48980
C82         C  0.24027331  0.16678589  0.73720368     0.92330
O83         O  0.17824192  0.20932675  0.74696803    -0.81210
O84         O  0.13412966  0.20589103  0.66880067    -0.74770
Al85       Al  0.17466051  0.17225842  0.72392041     1.90120
O86         O  0.16376635  0.24251455  0.71124903    -0.73840
O87         O  0.18328462  0.21274934  0.63192497    -0.73690
O88         O  0.21222611  0.24571778  0.67653486    -0.79350
O89         O  0.20728668  0.16799236  0.63220207    -0.77550
O90         O  0.19146003  0.18898141  0.68982017    -1.13690
O91         O  0.21434212  0.12996043  0.68157125    -0.72880
C92         C  0.19190827  0.11681370  0.69503091     0.97840
C93         C  0.17031201  0.23622253  0.73894254     0.94230
Al94       Al  0.17472209  0.22336698  0.67334325     1.55560
O95         O  0.21245381  0.16042422  0.74319697    -0.77500
C96         C  0.19575926  0.19066569  0.61747380     0.98400
C97         C  0.11916943  0.19477875  0.69142009     0.93280
O98         O  0.13326840  0.18160954  0.71338186    -0.82820
C99         C  0.01623636  0.24053137  0.75670417     0.00080
C100        C  0.98460986  0.23814869  0.75460851     0.00080
C101        C  0.24951202  0.48389476  0.74792292     0.00080
C102        C  0.24925363  0.51543031  0.74826342     0.00080
C103        C  0.75068426  0.51529336  0.25063331     0.00080
C104        C  0.74995861  0.48381271  0.25106246     0.00080
C105        C  0.74714694  0.25062535  0.98628840     0.00080
C106        C  0.74576082  0.25205619  0.01768541     0.00080
O107        O  0.78678981  0.31591441  0.13318737    -0.82280
C108        C  0.83114801  0.26088027  0.23991156     0.97070
O109        O  0.82305392  0.25256038  0.21307045    -0.71400
O110        O  0.78928407  0.25513751  0.16370427    -0.74990
Al111      Al  0.82705547  0.27453246  0.17553193     1.48980
C112        C  0.76140904  0.26117902  0.16978860     0.92330
O113        O  0.75680716  0.33711028  0.21352442    -0.81210
O114        O  0.81802969  0.36692839  0.21457428    -0.74770
Al115      Al  0.77584522  0.32542983  0.17501362     1.90120
O116        O  0.79077017  0.32225505  0.24849721    -0.73840
O117        O  0.86751965  0.33066498  0.20727838    -0.73690
O118        O  0.83925597  0.28830134  0.24548028    -0.79350
O119        O  0.86880406  0.28511053  0.18492020    -0.77550
O120        O  0.81032009  0.30885003  0.19177535    -1.13690
O121        O  0.83193903  0.29220061  0.13531745    -0.72880
C122        C  0.80913875  0.30239476  0.11978723     0.97840
C123        C  0.76374568  0.33047139  0.24119033     0.94230
Al124      Al  0.82751329  0.32584062  0.22565719     1.55560
O125        O  0.75320039  0.28793242  0.17820351    -0.77500
C126        C  0.88276269  0.30773210  0.19723575     0.98400
C127        C  0.80466563  0.38104848  0.19268003     0.93280
O128        O  0.79337439  0.36595297  0.17014530    -0.82820
O129        O  0.86665299  0.21235281  0.32036890    -0.82280
C130        C  0.76118480  0.16829748  0.26129069     0.97070
O131        O  0.78800462  0.17697807  0.25357485    -0.71400
O132        O  0.83697326  0.21078130  0.25856067    -0.74990
Al133      Al  0.82529984  0.17288819  0.27660489     1.48980
C134        C  0.83036387  0.23833990  0.26491343     0.92330
O135        O  0.78522963  0.24110619  0.33961285    -0.81210
O136        O  0.78365542  0.17919878  0.36808075    -0.74770
Al137      Al  0.82417763  0.22268344  0.32899246     1.90120
O138        O  0.75066853  0.20748052  0.32309306    -0.73840
O139        O  0.79323916  0.13074266  0.33088641    -0.73690
O140        O  0.75549841  0.15936704  0.28837923    -0.79350
O141        O  0.81653369  0.13110863  0.28582666    -0.77550
O142        O  0.80814460  0.18857183  0.31099161    -1.13690
O143        O  0.86511062  0.16805130  0.29531847    -0.72880
C144        C  0.88041454  0.19075825  0.30594372     0.97840
C145        C  0.75779480  0.23443978  0.33175467     0.94230
Al146      Al  0.77407852  0.17063051  0.32654987     1.55560
O147        O  0.82181073  0.24616204  0.29176775    -0.77500
C148        C  0.80465685  0.11630351  0.30796405     0.98400
C149        C  0.80456973  0.19255509  0.38356373     0.93280
O150        O  0.82764992  0.20442517  0.36972777    -0.82820
O151        O  0.66887340  0.36733850  0.29739690    -0.82280
C152        C  0.73413646  0.25873274  0.33140969     0.97070
O153        O  0.74098760  0.28583578  0.34026117    -0.71400
O154        O  0.74679832  0.32046323  0.29163371    -0.74990
Al155      Al  0.72392246  0.32533576  0.32827758     1.48980
C156        C  0.74001824  0.33092229  0.26525061     0.92330
O157        O  0.67816563  0.29235520  0.25298426    -0.81210
O158        O  0.63293022  0.29736877  0.33195164    -0.74770
Al159      Al  0.67387393  0.32859171  0.27695042     1.90120
O160        O  0.65863894  0.25964081  0.28668038    -0.73840
O161        O  0.68172556  0.28568632  0.36861793    -0.73690
O162        O  0.70743208  0.25250421  0.32126954    -0.79350
O163        O  0.70488607  0.33095875  0.36763454    -0.77550
O164        O  0.68959328  0.31038191  0.31064382    -1.13690
O165        O  0.71516535  0.36803922  0.31878447    -0.72880
C166        C  0.69232505  0.38228093  0.30685116     0.97840
C167        C  0.66797116  0.26585409  0.25956657     0.94230
Al168      Al  0.67143204  0.27677127  0.32609281     1.55560
O169        O  0.71303041  0.34080425  0.25931949    -0.77500
C170        C  0.69465830  0.30805119  0.38269574     0.98400
C171        C  0.61745327  0.30683884  0.30889160     0.93280
O172        O  0.63119873  0.31898160  0.28599709    -0.82820
O173        O  0.68036112  0.13316686  0.21533763    -0.82280
C174        C  0.73852615  0.23634346  0.16834103     0.97070
O175        O  0.74614710  0.20932735  0.17632739    -0.71400
O176        O  0.74145311  0.16134147  0.21134636    -0.74990
Al177      Al  0.72241483  0.17253904  0.17337970     1.48980
C178        C  0.73600865  0.16934242  0.23884046     0.92330
O179        O  0.66045151  0.21444969  0.24256451    -0.81210
O180        O  0.63111147  0.21490969  0.18166947    -0.74770
Al181      Al  0.67176555  0.17539597  0.22458387     1.90120
O182        O  0.67717582  0.24836537  0.20872761    -0.73840
O183        O  0.66712457  0.20494450  0.13305318    -0.73690
O184        O  0.71115302  0.24257967  0.16021289    -0.79350
O185        O  0.71195563  0.18104789  0.13141134    -0.77550
O186        O  0.68882029  0.19061591  0.18992401    -1.13690
O187        O  0.70286250  0.13289791  0.16973292    -0.72880
C188        C  0.69272802  0.11847546  0.19321108     0.97840
C189        C  0.66816100  0.24175107  0.23566078     0.94230
Al190      Al  0.67280756  0.22449937  0.17225392     1.55560
O191        O  0.70952883  0.17886025  0.24702354    -0.77500
C192        C  0.68939847  0.19369112  0.11766907     0.98400
C193        C  0.61665280  0.19304106  0.19457235     0.93280
O194        O  0.63150229  0.17063939  0.20635405    -0.82820
C195        C  0.74614332  0.01558897  0.25378852     0.00080
C196        C  0.74724993  0.98433506  0.25075847     0.00080
C197        C  0.74352171  0.24715955  0.48578684     0.00080
C198        C  0.74219099  0.24398991  0.51718458     0.00080
C199        C  0.74586558  0.75241790  0.98469867     0.00080
C200        C  0.74905087  0.75494503  0.01591966     0.00080
O201        O  0.82633146  0.70529593  0.13174043    -0.82280
C202        C  0.76056344  0.66806590  0.23891203     0.97070
O203        O  0.75357977  0.66062365  0.21154668    -0.71400
O204        O  0.74932456  0.70953528  0.17849245    -0.74990
Al205      Al  0.77154765  0.67261947  0.17323256     1.48980
C206        C  0.75655923  0.73618117  0.16939033     0.92330
O207        O  0.82052830  0.74509425  0.21047643    -0.81210
O208        O  0.86359203  0.66632684  0.20272792    -0.74770
Al209      Al  0.82281808  0.72305428  0.17241425     1.90120
O210        O  0.83698487  0.70863053  0.24197983    -0.73840
O211        O  0.81381035  0.62996648  0.21114921    -0.73690
O212        O  0.78789572  0.67524909  0.24627111    -0.79350
O213        O  0.78912995  0.63271422  0.16671094    -0.77550
O214        O  0.80643666  0.68879097  0.18909848    -1.13690
O215        O  0.78083941  0.68253541  0.13158934    -0.72880
C216        C  0.80305882  0.69474464  0.11706126     0.97840
C217        C  0.82986764  0.73641562  0.23686260     0.94230
Al218      Al  0.82418816  0.67127803  0.22234922     1.55560
O219        O  0.78408441  0.74252583  0.16166545    -0.77500
C220        C  0.80002583  0.61686330  0.18878756     0.98400
C221        C  0.87893660  0.68936126  0.19304975     0.93280
O222        O  0.86506524  0.71209356  0.18074133    -0.82820
O223        O  0.83169519  0.79266955  0.36680494    -0.82280
C224        C  0.76590538  0.83018654  0.25849738     0.97070
O225        O  0.75936538  0.83773827  0.28596555    -0.71400
O226        O  0.75363504  0.79024457  0.32296265    -0.74990
Al227      Al  0.77776975  0.82723354  0.32475625     1.48980
C228        C  0.76115096  0.76335744  0.33160739     0.92330
O229        O  0.82312269  0.75121903  0.28911368    -0.81210
O230        O  0.86981293  0.82812265  0.29370991    -0.74770
Al231      Al  0.82711047  0.77435917  0.32647978     1.90120
O232        O  0.84054992  0.78580160  0.25635831    -0.73840
O233        O  0.82166652  0.86602382  0.28398388    -0.73690
O234        O  0.79273782  0.82109760  0.25129630    -0.79350
O235        O  0.79654729  0.86760817  0.32795717    -0.77550
O236        O  0.81172463  0.80883316  0.30897248    -1.13690
O237        O  0.78821876  0.81921114  0.36678850    -0.72880
C238        C  0.80925944  0.80486956  0.38140966     0.97840
C239        C  0.83160266  0.75877205  0.26219325     0.94230
Al240      Al  0.82976525  0.82414846  0.27474352     1.55560
O241        O  0.78881383  0.75665303  0.33782689    -0.77500
C242        C  0.80823402  0.88145736  0.30485525     0.98400
C243        C  0.88411352  0.80514181  0.30509725     0.93280
O244        O  0.86916973  0.78349608  0.31779387    -0.82820
O245        O  0.63237269  0.81834574  0.21849082    -0.82280
C246        C  0.73263396  0.76010746  0.16908030     0.97070
O247        O  0.70609157  0.75343398  0.17929735    -0.71400
O248        O  0.65822256  0.75898378  0.21526211    -0.74990
Al249      Al  0.66963612  0.77702334  0.17600543     1.48980
C250        C  0.66859903  0.76456503  0.24214703     0.92330
O251        O  0.71446775  0.83952164  0.24244930    -0.81210
O252        O  0.71281281  0.86879922  0.18350289    -0.74770
Al253      Al  0.67471088  0.82742130  0.22626164     1.90120
O254        O  0.74715208  0.82124646  0.20806589    -0.73840
O255        O  0.70066951  0.83208788  0.13441333    -0.73690
O256        O  0.73886518  0.78710107  0.15957496    -0.79350
O257        O  0.67834879  0.78652574  0.13345612    -0.77550
O258        O  0.68858789  0.81042599  0.19145920    -1.13690
O259        O  0.63026594  0.79728151  0.17224699    -0.72880
C260        C  0.61662114  0.80751131  0.19617522     0.97840
C261        C  0.74141412  0.83069179  0.23504404     0.94230
Al262      Al  0.72190149  0.82626132  0.17269641     1.55560
O263        O  0.68016604  0.79054908  0.24873985    -0.77500
C264        C  0.69075303  0.80901698  0.11927453     0.98400
C265        C  0.69031016  0.88204225  0.19713531     0.93280
O266        O  0.66802009  0.86629447  0.20747916    -0.82820
O267        O  0.70636505  0.63422415  0.33285193    -0.82280
C268        C  0.66820505  0.74058437  0.26598341     0.97070
O269        O  0.66014600  0.71319623  0.25936671    -0.71400
O270        O  0.70952598  0.67847937  0.25448540    -0.74990
Al271      Al  0.67271457  0.67441641  0.27769911     1.48980
C272        C  0.73631869  0.66958358  0.26218045     0.92330
O273        O  0.74627859  0.71181738  0.32408453    -0.81210
O274        O  0.66787033  0.70510281  0.36862063    -0.74770
Al275      Al  0.72418665  0.67439855  0.32809384     1.90120
O276        O  0.71089295  0.74396558  0.34145256    -0.73840
O277        O  0.63091691  0.71400982  0.31944999    -0.73690
O278        O  0.67697721  0.74766188  0.29288719    -0.79350
O279        O  0.63332495  0.66861834  0.29671810    -0.77550
O280        O  0.68976084  0.69084870  0.31184875    -1.13690
O281        O  0.68306236  0.63247035  0.28754255    -0.72880
C282        C  0.69665501  0.61886854  0.30973129     0.97840
C283        C  0.73823424  0.73853056  0.33264037     0.94230
Al284      Al  0.67284435  0.72449967  0.32930924     1.55560
O285        O  0.74287241  0.66295798  0.28985081    -0.77500
C286        C  0.61756164  0.69111820  0.30693741     0.98400
C287        C  0.69099812  0.69544006  0.38392452     0.93280
O288        O  0.71393328  0.68353313  0.37006036    -0.82820
C289        C  0.74780057  0.75329637  0.48471796     0.00080
C290        C  0.74912938  0.75251800  0.51622023     0.00080
C291        C  0.75392866  0.98659854  0.74702070     0.00080
C292        C  0.75464402  0.01797140  0.74859704     0.00080
O293        O  0.63459448  0.17095395  0.79554890    -0.82280
C294        C  0.74625555  0.23218001  0.83108199     0.97070
O295        O  0.71906582  0.23920216  0.83933782    -0.71400
O296        O  0.68239270  0.24770544  0.79143928    -0.74990
Al297      Al  0.67929525  0.22326166  0.82812868     1.48980
C298        C  0.67164874  0.24101535  0.76496091     0.92330
O299        O  0.70995222  0.17969900  0.75051983    -0.81210
O300        O  0.70691249  0.13078806  0.82689060    -0.74770
Al301      Al  0.67370636  0.17540140  0.77503873     1.90120
O302        O  0.74349345  0.15921687  0.78291333    -0.73840
O303        O  0.71950409  0.17789717  0.86562881    -0.73690
O304        O  0.75228180  0.20591652  0.81986193    -0.79350
O305        O  0.67532466  0.20300563  0.86735679    -0.77550
O306        O  0.69323444  0.18936818  0.80892449    -1.13690
O307        O  0.63646642  0.21534068  0.82023767    -0.72880
C308        C  0.62083444  0.19396487  0.80756685     0.97840
C309        C  0.73691160  0.17002212  0.75651603     0.94230
Al310      Al  0.72733357  0.16991569  0.82283522     1.55560
O311        O  0.66208548  0.21425824  0.75880179    -0.77500
C312        C  0.69831566  0.19088494  0.88118258     0.98400
C313        C  0.69447568  0.11739576  0.80389637     0.93280
O314        O  0.68192787  0.13325722  0.78274606    -0.82820
O315        O  0.78413249  0.36419149  0.82403525    -0.82280
C316        C  0.83521548  0.26507486  0.76283989     0.97070
O317        O  0.82574483  0.29187080  0.75575589    -0.71400
O318        O  0.78721846  0.33806254  0.76237879    -0.74990
Al319      Al  0.82670379  0.32918295  0.77981472     1.48980
C320        C  0.76009575  0.32970325  0.76914186     0.92330
O321        O  0.76311994  0.28225039  0.84326071    -0.81210
O322        O  0.82346085  0.28397184  0.87157450    -0.74770
Al323      Al  0.77816413  0.32209955  0.83195389     1.90120
O324        O  0.79755542  0.25025273  0.82414640    -0.73840
O325        O  0.87177605  0.29771960  0.83316240    -0.73690
O326        O  0.84463440  0.25914497  0.78981444    -0.79350
O327        O  0.86939681  0.32373605  0.78944759    -0.77550
O328        O  0.81284307  0.30936629  0.81356554    -1.13690
O329        O  0.82766551  0.36965342  0.79888491    -0.72880
C330        C  0.80320470  0.38135895  0.81039627     0.97840
C331        C  0.77040924  0.25581891  0.83328538     0.94230
Al332      Al  0.83294680  0.27601423  0.82864816     1.55560
O333        O  0.75395992  0.31800761  0.79527506    -0.77500
C334        C  0.88507659  0.30938012  0.80968945     0.98400
C335        C  0.80907177  0.30536165  0.88563560     0.93280
O336        O  0.79832456  0.32792391  0.87054038    -0.82820
O337        O  0.82200757  0.22035385  0.63182090    -0.82280
C338        C  0.76138526  0.17247480  0.73309573     0.97070
O339        O  0.75488854  0.18251937  0.70644997    -0.71400
O340        O  0.76227920  0.21887620  0.65914607    -0.74990
Al341      Al  0.77945293  0.17931341  0.67028040     1.48980
C342        C  0.76841421  0.24542005  0.66996845     0.92330
O343        O  0.84458960  0.24595050  0.71258592    -0.81210
O344        O  0.87098476  0.18398772  0.71271555    -0.74770
Al345      Al  0.83182384  0.22855912  0.67399826     1.90120
O346        O  0.82549258  0.21366161  0.74667784    -0.73840
O347        O  0.83253174  0.13691415  0.70379309    -0.73690
O348        O  0.78897088  0.16554651  0.74036780    -0.79350
O349        O  0.78804139  0.13654016  0.67901290    -0.77550
O350        O  0.81344869  0.19446244  0.68897300    -1.13690
O351        O  0.79977375  0.17483580  0.63118035    -0.72880
C352        C  0.81022576  0.19814201  0.61682468     0.97840
C353        C  0.83530138  0.24026379  0.73960517     0.94230
Al354      Al  0.82846441  0.17647454  0.72292797     1.55560
O355        O  0.79529928  0.25200313  0.67942874    -0.77500
C356        C  0.80978651  0.12215539  0.69251897     0.98400
C357        C  0.88572756  0.19542720  0.69005797     0.93280
O358        O  0.87121588  0.20870442  0.66818510    -0.82820
O359        O  0.63418672  0.33374734  0.70680243    -0.82280
C360        C  0.74381638  0.26861660  0.67254181     0.97070
O361        O  0.71645334  0.26187128  0.66440063    -0.71400
O362        O  0.68149902  0.25630811  0.71378285    -0.74990
Al363      Al  0.67703772  0.27903324  0.67652609     1.48980
C364        C  0.67134022  0.26382791  0.74021453     0.92330
O365        O  0.70876770  0.32447788  0.75203689    -0.81210
O366        O  0.70624933  0.36994680  0.67330236    -0.74770
Al367      Al  0.67306567  0.32913221  0.72758642     1.90120
O368        O  0.74266487  0.34288638  0.71893546    -0.73840
O369        O  0.71759336  0.32120112  0.63636399    -0.73690
O370        O  0.75008022  0.29481750  0.68373612    -0.79350
O371        O  0.67200608  0.29846388  0.63714157    -0.77550
O372        O  0.69187090  0.31323585  0.69418433    -1.13690
O373        O  0.63429925  0.28751864  0.68572609    -0.72880
C374        C  0.61957709  0.30994722  0.69768129     0.97840
C375        C  0.73589936  0.33276755  0.74563179     0.94230
Al376      Al  0.72604856  0.33103024  0.67919095     1.55560
O377        O  0.66102924  0.29062625  0.74549376    -0.77500
C378        C  0.69525682  0.30836722  0.62210604     0.98400
C379        C  0.69542261  0.38536822  0.69572654     0.93280
O380        O  0.68270472  0.37152633  0.71825330    -0.82820
C381        C  0.75130407  0.48735028  0.75120024     0.00080
C382        C  0.75231510  0.51874288  0.75120021     0.00080
O383        O  0.79496681  0.67396919  0.86864990    -0.82280
C384        C  0.83142081  0.73704676  0.75962918     0.97070
O385        O  0.84024253  0.74415006  0.78669068    -0.71400
O386        O  0.79148078  0.75084000  0.82115043    -0.74990
Al387      Al  0.82806403  0.72750321  0.82607735     1.48980
C388        C  0.76491052  0.74437784  0.83137046     0.92330
O389        O  0.75330014  0.68105201  0.79109336    -0.81210
O390        O  0.83193152  0.63604413  0.79905083    -0.74770
Al391      Al  0.77613328  0.67791988  0.82865315     1.90120
O392        O  0.78854952  0.66165441  0.75982369    -0.73840
O393        O  0.86897731  0.68450831  0.78743920    -0.73690
O394        O  0.82233687  0.71008363  0.75331100    -0.79350
O395        O  0.86748533  0.70843008  0.83223724    -0.77550
O396        O  0.81049485  0.69313255  0.81114584    -1.13690
O397        O  0.81831882  0.71915113  0.86837162    -0.72880
C398        C  0.80569261  0.69722887  0.88311281     0.97840
C399        C  0.76125455  0.67082325  0.76483749     0.94230
Al400      Al  0.82682616  0.67445252  0.77799293     1.55560
O401        O  0.75820952  0.71717923  0.83973327    -0.77500
C402        C  0.88283490  0.69777146  0.80966635     0.98400
C403        C  0.80851181  0.62106218  0.80840727     0.93280
O404        O  0.78567517  0.63529388  0.82022366    -0.82820
O405        O  0.78596475  0.81990873  0.63188685    -0.82280
C406        C  0.83055608  0.76074163  0.73555530     0.97070
O407        O  0.82060965  0.75387813  0.70894115    -0.71400
O408        O  0.78569176  0.76000635  0.66039395    -0.74990
Al409      Al  0.82498297  0.77707128  0.67216404     1.48980
C410        C  0.75871692  0.76687078  0.66951335     0.92330
O411        O  0.75844766  0.84267828  0.71156218    -0.81210
O412        O  0.81930135  0.86916222  0.71412522    -0.74770
Al413      Al  0.77651003  0.82985072  0.67356714     1.90120
O414        O  0.79005164  0.82373437  0.74675614    -0.73840
O415        O  0.86777876  0.83089352  0.70560464    -0.73690
O416        O  0.83873298  0.78802297  0.74209181    -0.79350
O417        O  0.86708865  0.78611007  0.68151008    -0.77550
O418        O  0.81000664  0.81148886  0.68971780    -1.13690
O419        O  0.83057614  0.79568791  0.63240022    -0.72880
C420        C  0.80800061  0.80703559  0.61749024     0.97840
C421        C  0.76363005  0.83355401  0.73875695     0.94230
Al422      Al  0.82760763  0.82690689  0.72404842     1.55560
O423        O  0.75218406  0.79390731  0.67823589    -0.77500
C424        C  0.88208425  0.80784579  0.69436161     0.98400
C425        C  0.80754512  0.88347523  0.69133564     0.93280
O426        O  0.79703768  0.86856123  0.66830584    -0.82820
O427        O  0.63287344  0.78926610  0.81797436    -0.82280
C428        C  0.73829030  0.83357478  0.76097194     0.97070
O429        O  0.71190221  0.82359479  0.75297365    -0.71400
O430        O  0.66237189  0.78873768  0.75801671    -0.74990
Al431      Al  0.67414177  0.82807349  0.77513640     1.48980
C432        C  0.66977658  0.76146308  0.76545937     0.92330
O433        O  0.71404009  0.76235113  0.84113807    -0.81210
O434        O  0.71449511  0.82330223  0.86838046    -0.74770
Al435      Al  0.67505927  0.77990190  0.82832986     1.90120
O436        O  0.74822690  0.79533319  0.82305112    -0.73840
O437        O  0.70493648  0.87127850  0.82987579    -0.73690
O438        O  0.74343613  0.84294434  0.78813048    -0.79350
O439        O  0.68333088  0.87049598  0.78375383    -0.77550
O440        O  0.69099769  0.81347253  0.81009094    -1.13690
O441        O  0.63395261  0.83347911  0.79309396    -0.72880
C442        C  0.61872764  0.81095867  0.80410568     0.97840
C443        C  0.74125846  0.76861770  0.83226683     0.94230
Al444      Al  0.72460905  0.83180331  0.82628200     1.55560
O445        O  0.67944337  0.75533917  0.79234143    -0.77500
C446        C  0.69559248  0.88545552  0.80590425     0.98400
C447        C  0.69203122  0.81090430  0.88250490     0.93280
O448        O  0.66935261  0.80012707  0.86727665    -0.82180
O449        O  0.66893864  0.63442568  0.70553777    -0.82280
C450        C  0.73508087  0.74277216  0.67111647     0.97070
O451        O  0.74216383  0.71536161  0.66378037    -0.71400
O452        O  0.74696216  0.68045778  0.71307162    -0.74990
Al453      Al  0.72462091  0.67634537  0.67534107     1.48980
C454        C  0.73892640  0.67064197  0.73941436     0.92330
O455        O  0.67758709  0.71009232  0.74929750    -0.81210
O456        O  0.63349452  0.70503540  0.66979486    -0.74770
Al457      Al  0.67345465  0.67363641  0.72559325     1.90120
O458        O  0.65928777  0.74288057  0.71494870    -0.73840
O459        O  0.68264245  0.71604757  0.63382811    -0.73690
O460        O  0.70832763  0.74941725  0.68078457    -0.79350
O461        O  0.70649885  0.67118734  0.63520867    -0.77550
O462        O  0.68997845  0.69158105  0.69207951    -1.13690
O463        O  0.71521725  0.63418165  0.68424225    -0.72880
C464        C  0.69250755  0.61973709  0.69588095     0.97840
C465        C  0.66845971  0.73683938  0.74216260     0.94230
Al466      Al  0.67217868  0.72527027  0.67600187     1.55560
O467        O  0.71163548  0.66151596  0.74442465    -0.77500
C468        C  0.69609878  0.69396786  0.61993647     0.98400
C469        C  0.61773653  0.69547848  0.69253997     0.93280
O470        O  0.63120498  0.68328714  0.71557040    -0.82820
C471        C  0.51606545  0.76027504  0.74154335     0.00080
C472        C  0.48454174  0.75990926  0.74059363     0.00080
O473        O  0.16882840  0.70451156  0.86688453    -0.82280
C474        C  0.23551751  0.67023235  0.75895399     0.97070
O475        O  0.24278078  0.66297024  0.78641067    -0.71400
O476        O  0.24724561  0.71177108  0.82222657    -0.74990
Al477      Al  0.22483999  0.67412068  0.82557732     1.48980
C478        C  0.23908163  0.73797322  0.83230692     0.92330
O479        O  0.17728391  0.74747026  0.79089500    -0.81210
O480        O  0.13318581  0.66845786  0.79584324    -0.74770
Al481      Al  0.17344365  0.72418482  0.82762092     1.90120
O482        O  0.15997776  0.71250599  0.75801666    -0.73840
O483        O  0.18282546  0.63208517  0.78566385    -0.73690
O484        O  0.20845345  0.67874086  0.75219710    -0.79350
O485        O  0.20704210  0.63399080  0.83041511    -0.77550
O486        O  0.19013184  0.69060364  0.80994436    -1.13690
O487        O  0.21499918  0.68296113  0.86792768    -0.72880
C488        C  0.19220509  0.69501389  0.88199397     0.97840
C489        C  0.16873594  0.73974143  0.76401540     0.94230
Al490      Al  0.17240191  0.67411935  0.77613200     1.55560
O491        O  0.21141271  0.74322212  0.84003945    -0.77500
C492        C  0.19664810  0.61852639  0.80771662     0.98400
C493        C  0.11774954  0.69141306  0.80557444     0.93280
O494        O  0.13156019  0.71407106  0.81798095    -0.82820
O495        O  0.13370112  0.83205681  0.70694452    -0.82280
C496        C  0.24283327  0.76651432  0.67103093     0.97070
O497        O  0.21533875  0.75920220  0.66387532    -0.71400
O498        O  0.18012713  0.75452920  0.71291606    -0.74990
Al499      Al  0.17612559  0.77686901  0.67545650     1.48980
C500        C  0.17009151  0.76244402  0.73919755     0.92330
O501        O  0.21097534  0.82454142  0.74875687    -0.81210
O502        O  0.20526409  0.86868739  0.67014168    -0.74770
Al503      Al  0.17379439  0.82802753  0.72587650     1.90120
O504        O  0.24357714  0.84165710  0.71359351    -0.73840
O505        O  0.21486154  0.81923233  0.63335040    -0.73690
O506        O  0.24941461  0.79353105  0.67958761    -0.79350
O507        O  0.17044700  0.79459483  0.63553188    -0.77550
O508        O  0.19142407  0.81162570  0.69200039    -1.13690
O509        O  0.13404531  0.78638572  0.68446592    -0.72880
C510        C  0.11923868  0.80868596  0.69646897     0.97840
C511        C  0.23784647  0.83281772  0.74082273     0.94230
Al512      Al  0.22504828  0.82945314  0.67535259     1.55560
O513        O  0.16225556  0.78996493  0.74480699    -0.77500
C514        C  0.19269913  0.80537208  0.61990007     0.98400
C515        C  0.19524783  0.88388567  0.69316300     0.93280
O516        O  0.18276178  0.86997836  0.71567685    -0.82820
O517        O  0.33233117  0.79553459  0.86997320    -0.82280
C518        C  0.26290728  0.83117899  0.76336189     0.97070
O519        O  0.25739186  0.83871913  0.79099283    -0.71400
O520        O  0.25356569  0.78996875  0.82557349    -0.74990
Al521      Al  0.27648125  0.82721306  0.82897134     1.48980
C522        C  0.26162329  0.76312857  0.83380616     0.92330
O523        O  0.32317336  0.75204842  0.79402810    -0.81210
O524        O  0.36650328  0.83102549  0.79603971    -0.74770
Al525      Al  0.32729665  0.77611331  0.83028113     1.90120
O526        O  0.33872282  0.78622971  0.75990782    -0.73840
O527        O  0.31746965  0.86727139  0.78724203    -0.73690
O528        O  0.28921884  0.82122422  0.75527337    -0.79350
O529        O  0.29534156  0.86726700  0.83305315    -0.77550
O530        O  0.31037387  0.80972355  0.81252563    -1.13690
O531        O  0.28689826  0.81834497  0.87076137    -0.72880
C532        C  0.30925630  0.80581979  0.88498417     0.97840
C533        C  0.33169790  0.75875245  0.76701342     0.94230
Al534      Al  0.32678007  0.82524094  0.77781146     1.55560
O535        O  0.28906316  0.75740393  0.84228631    -0.77500
C536        C  0.30564006  0.88188100  0.80971747     0.98400
C537        C  0.38252363  0.80873004  0.80624298     0.93280
O538        O  0.36945183  0.78641289  0.82004709    -0.82820
O539        O  0.28537745  0.63422369  0.68016980    -0.82280
C540        C  0.33211657  0.73458505  0.74318451     0.97070
O541        O  0.32151774  0.70808495  0.74927155    -0.71400
O542        O  0.28602098  0.66027409  0.74137246    -0.74990
Al543      Al  0.32542050  0.67170014  0.72497797     1.48980
C544        C  0.25921373  0.66999052  0.73486142     0.92330
O545        O  0.26058812  0.71616715  0.66076456    -0.81210
O546        O  0.32120336  0.71697594  0.63397786    -0.74770
Al547      Al  0.27710435  0.67670179  0.67191727     1.90120
O548        O  0.29380544  0.74905920  0.68102835    -0.73840
O549        O  0.36928259  0.70410202  0.67209302    -0.73690
O550        O  0.34203701  0.74094872  0.71643607    -0.79350
O551        O  0.36799056  0.68019033  0.71686065    -0.77550
O552        O  0.31114282  0.69074798  0.69096498    -1.13690
O553        O  0.32982553  0.63233645  0.70492993    -0.72880
C554        C  0.30665597  0.61860713  0.69309290     0.97840
C555        C  0.26711924  0.74288950  0.67060600     0.94230
Al556      Al  0.33018285  0.72465393  0.67681013     1.55560
O557        O  0.25295480  0.68046632  0.70831126    -0.77500
C558        C  0.38334613  0.69264955  0.69527761     0.98400
C559        C  0.30798858  0.69568885  0.61861892     0.93280
O560        O  0.29706481  0.67237880  0.63262013    -0.82820
C561        C  0.01633090  0.74849169  0.74755566     0.00080
C562        C  0.98483501  0.74965663  0.74890064     0.00080
C563        C  0.24997048  0.75295755  0.51608651     0.00080
C564        C  0.24912676  0.75124250  0.48460788     0.00080
C565        C  0.01511120  0.74706785  0.24521183     0.00080
C566        C  0.98355726  0.74739610  0.24530120     0.00080
O567        O  0.33079167  0.86486199  0.20615189    -0.82280
C568        C  0.26381111  0.75935318  0.16741890     0.97070
O569        O  0.25832045  0.78649992  0.15812945    -0.71400
O570        O  0.25221941  0.82010817  0.20663916    -0.74990
Al571      Al  0.27668599  0.82478706  0.17104129     1.48980
C572        C  0.25858557  0.82887470  0.23370488     0.92330
O573        O  0.32143628  0.78760652  0.24644209    -0.81210
O574        O  0.36775791  0.79321277  0.16908432    -0.74770
Al575      Al  0.32532512  0.82492355  0.22399084     1.90120
O576        O  0.33917586  0.75545480  0.21116001    -0.73840
O577        O  0.31907370  0.78458898  0.13082216    -0.73690
O578        O  0.29058858  0.75152802  0.17625108    -0.79350
O579        O  0.29732960  0.83048627  0.13246775    -0.77550
O580        O  0.31016946  0.80821184  0.18920788    -1.13690
O581        O  0.28619311  0.86675037  0.18181049    -0.72880
C582        C  0.30818014  0.88036680  0.19577087     0.97840
C583        C  0.33130226  0.76124189  0.23865871     0.94230
Al584      Al  0.32780970  0.77433092  0.17293130     1.55560
O585        O  0.28592910  0.83634834  0.24130606    -0.77500
C586        C  0.30731866  0.80760132  0.11706702     0.98400
C587        C  0.38225411  0.80359237  0.19250681     0.93280
O588        O  0.36751000  0.81590805  0.21469996    -0.82820
O589        O  0.21396855  0.82093344  0.36516744    -0.82280
C590        C  0.16889791  0.75689085  0.26460389     0.97070
O591        O  0.17895210  0.75112717  0.29144512    -0.71400
O592        O  0.21407083  0.75957442  0.33964074    -0.74990
Al593      Al  0.17448762  0.77586999  0.32743424     1.48980
C594        C  0.24112768  0.76620179  0.33058128     0.92330
O595        O  0.23987088  0.83989821  0.28357614    -0.81210
O596        O  0.17976318  0.86586084  0.28074823    -0.74770
Al597      Al  0.22272519  0.82890622  0.32285208     1.90120
O598        O  0.20781094  0.81827832  0.25034035    -0.73840
O599        O  0.13179983  0.82851213  0.29291105    -0.73690
O600        O  0.15936976  0.78355601  0.25755804    -0.79350
O601        O  0.13163151  0.78412832  0.31763328    -0.77550
O602        O  0.18916238  0.80951307  0.30823340    -1.13690
O603        O  0.16959876  0.79625552  0.36675775    -0.72880
C604        C  0.19277215  0.80795481  0.38068206     0.97840
C605        C  0.23409474  0.82930595  0.25691537     0.94230
Al606      Al  0.17103735  0.82314117  0.27354353     1.55560
O607        O  0.24734578  0.79267798  0.31997893    -0.77500
C608        C  0.11711915  0.80549545  0.30351235     0.98400
C609        C  0.19142178  0.88155261  0.30263214     0.93280
O610        O  0.20200421  0.86792093  0.32642859    -0.82820
O611        O  0.29430689  0.67158380  0.36853282    -0.82280
C612        C  0.33253751  0.73664594  0.26160789     0.97070
O613        O  0.34082596  0.74303741  0.28890211    -0.71400
O614        O  0.29232892  0.74901490  0.32272869    -0.74990
Al615      Al  0.32879299  0.72526043  0.32735155     1.48980
C616        C  0.26522525  0.74230105  0.33113423     0.92330
O617        O  0.25380201  0.67857254  0.29037436    -0.81210
O618        O  0.33180306  0.63362732  0.29728457    -0.74770
Al619      Al  0.27637728  0.67581005  0.32818910     1.90120
O620        O  0.28976813  0.66119579  0.25881670    -0.73840
O621        O  0.36925010  0.68203423  0.28819684    -0.73690
O622        O  0.32424297  0.70968787  0.25411539    -0.79350
O623        O  0.36848264  0.70608351  0.33293168    -0.77550
O624        O  0.31108000  0.69116367  0.31134452    -1.13690
O625        O  0.31902076  0.71597637  0.36935806    -0.72880
C626        C  0.30575717  0.69409909  0.38352201     0.97840
C627        C  0.26209226  0.66867103  0.26410470     0.94230
Al628      Al  0.32759691  0.67308830  0.27779556     1.55560
O629        O  0.25822566  0.71498803  0.33884674    -0.77500
C630        C  0.38350511  0.69475434  0.31040606     0.98400
C631        C  0.30853969  0.61898840  0.30757614     0.93280
O632        O  0.28619861  0.63345487  0.31995280    -0.82820
O633        O  0.13483173  0.70270501  0.16893877    -0.82280
C634        C  0.23986447  0.66706976  0.23869501     0.97070
O635        O  0.21260426  0.65790847  0.24383253    -0.71400
O636        O  0.17801865  0.70593176  0.24807768    -0.74990
Al637      Al  0.17460178  0.66953163  0.22434852     1.48980
C638        C  0.16953028  0.73280550  0.24080857     0.92330
O639        O  0.21204738  0.74458058  0.17785786    -0.81210
O640        O  0.20819924  0.66581175  0.13410837    -0.74770
Al641      Al  0.17472713  0.72125120  0.17433922     1.90120
O642        O  0.24488195  0.70890151  0.16247646    -0.73840
O643        O  0.21631482  0.62912148  0.18370872    -0.73690
O644        O  0.24818621  0.67548424  0.21200284    -0.79350
O645        O  0.17008426  0.63013279  0.20475632    -0.77550
O646        O  0.19163728  0.68715686  0.19078062    -1.13690
O647        O  0.13271783  0.67888742  0.21365011    -0.72880
C648        C  0.11913658  0.69190150  0.19118334     0.97840
C649        C  0.23876793  0.73664815  0.16887558     0.94230
Al650      Al  0.22615601  0.67096883  0.17436257     1.55560
O651        O  0.16273573  0.73959198  0.21310122    -0.77500
C652        C  0.19339193  0.61505267  0.19519498     0.98400
C653        C  0.19770081  0.68853817  0.11874409     0.93280
O654        O  0.18435418  0.71081616  0.13240019    -0.82820
C655        C  0.24785689  0.75158338  0.98539917     0.00080
C656        C  0.24651203  0.75207969  0.01686104     0.00080
C657        C  0.24648186  0.51562545  0.25868432     0.00080
C658        C  0.24698420  0.48419065  0.25842116     0.00080
C659        C  0.24896342  0.24936154  0.98449159     0.00080
C660        C  0.24818892  0.24902836  0.01598974     0.00080
C661        C  0.25297452  0.98412146  0.25230214     0.00080
C662        C  0.25159681  0.01549842  0.25117341     0.00080
O663        O  0.33241263  0.29511488  0.36833959    -0.82280
C664        C  0.26249171  0.33138676  0.26437145     0.97070
O665        O  0.25825350  0.34144264  0.29145471    -0.71400
O666        O  0.25249788  0.29294548  0.32489289    -0.74990
Al667      Al  0.27720220  0.32860538  0.32922137     1.48980
C668        C  0.25919491  0.26581604  0.33306649     0.92330
O669        O  0.32073502  0.25191764  0.29293963    -0.81210
O670        O  0.36673698  0.32988894  0.29521902    -0.74770
Al671      Al  0.32574326  0.27577538  0.32928425     1.90120
O672        O  0.33813612  0.28581855  0.25943931    -0.73840
O673        O  0.31794558  0.36734104  0.28689865    -0.73690
O674        O  0.28848066  0.32083381  0.25592690    -0.79350
O675        O  0.29845467  0.36715731  0.33386668    -0.77550
O676        O  0.31009875  0.30989711  0.31212407    -1.13690
O677        O  0.28736038  0.31831219  0.37115755    -0.72880
C678        C  0.30999911  0.30505209  0.38430316     0.97840
C679        C  0.33091111  0.25836884  0.26639648     0.94230
Al680      Al  0.32655946  0.32494504  0.27740446     1.55560
O681        O  0.28640584  0.25883274  0.34175492    -0.77500
C682        C  0.30744181  0.38191747  0.31013635     0.98400
C683        C  0.38189782  0.30705810  0.30568000     0.93280
O684        O  0.36796181  0.28488781  0.31891664    -0.82820
O685        O  0.21691480  0.13349796  0.31979979    -0.82280
C686        C  0.16897145  0.23313234  0.25856725     0.97070
O687        O  0.17753769  0.20603087  0.25208163    -0.71400
O688        O  0.21286707  0.15881393  0.25889066    -0.74990
Al689      Al  0.17440706  0.17007188  0.27701118     1.48980
C690        C  0.23973335  0.16911136  0.26394936     0.92330
O691        O  0.24233079  0.21460680  0.33932486    -0.81210
O692        O  0.18231049  0.21534114  0.36768067    -0.74770
Al693      Al  0.22526483  0.17549059  0.32783351     1.90120
O694        O  0.20890684  0.24797136  0.32059808    -0.73840
O695        O  0.13364889  0.20386978  0.33109137    -0.73690
O696        O  0.16027629  0.24008778  0.28568041    -0.79350
O697        O  0.13189541  0.17896219  0.28680828    -0.77550
O698        O  0.19051555  0.18954138  0.31024384    -1.13690
O699        O  0.17122243  0.13053000  0.29759129    -0.72880
C700        C  0.19520594  0.11734061  0.30858958     0.97840
C701        C  0.23544768  0.24174581  0.33125141     0.94230
Al702      Al  0.17256667  0.22367215  0.32514453     1.55560
O703        O  0.24758281  0.17941493  0.29024969    -0.77500
C704        C  0.11817195  0.19275309  0.30879305     0.98400
C705        C  0.19559878  0.19361021  0.38231289     0.93280
O706        O  0.20670125  0.17076974  0.36763020    -0.82820
O707        O  0.20432389  0.36957101  0.17337437    -0.82280
C708        C  0.17051372  0.25751723  0.23497516     0.97070
O709        O  0.16274689  0.28461797  0.24250163    -0.71400
O710        O  0.21081977  0.32091653  0.24956936    -0.74990
Al711      Al  0.17335020  0.32424145  0.22631801     1.48980
C712        C  0.23701987  0.33180106  0.24234300     0.92330
O713        O  0.25033217  0.29452400  0.18059842    -0.81210
O714        O  0.17321337  0.29744913  0.13292952    -0.74770
Al715      Al  0.22535199  0.33053881  0.17701310     1.90120
O716        O  0.21727515  0.26098352  0.16109505    -0.73840
O717        O  0.13504488  0.28517949  0.18054617    -0.73690
O718        O  0.18081504  0.25173687  0.20821489    -0.79350
O719        O  0.13318237  0.32818488  0.20756517    -0.77550
O720        O  0.19175762  0.31079925  0.19162199    -1.13690
O721        O  0.18078772  0.36681220  0.21838998    -0.72880
C722        C  0.19285662  0.38283094  0.19703978     0.97840
C723        C  0.24409851  0.26771850  0.17079720     0.94230
Al724      Al  0.17757861  0.27702857  0.17216439     1.55560
O725        O  0.24223896  0.34210225  0.21568124    -0.77500
C726        C  0.11945123  0.30551464  0.19486493     0.98400
C727        C  0.19623830  0.30923698  0.11902757     0.93280
O728        O  0.21743086  0.32217912  0.13452134    -0.82820
O729        O  0.36913880  0.17898097  0.21553541    -0.82280
C730        C  0.26757581  0.24331449  0.17182633     0.97070
O731        O  0.29454816  0.24911521  0.18145817    -0.71400
O732        O  0.34285765  0.24037421  0.21610731    -0.74990
Al733      Al  0.33019148  0.22386299  0.17674916     1.48980
C734        C  0.33305589  0.23394204  0.24293795     0.92330
O735        O  0.28880168  0.15949527  0.24349853    -0.81210
O736        O  0.28432588  0.13431235  0.18268243    -0.74770
Al737      Al  0.32707221  0.17073288  0.22520634     1.90120
O738        O  0.25409514  0.18062852  0.21271323    -0.73840
O739        O  0.29415723  0.17150470  0.13505679    -0.73690
O740        O  0.25987876  0.21621767  0.16407989    -0.79350
O741        O  0.31972122  0.21537840  0.13417524    -0.77550
O742        O  0.31137702  0.19017473  0.19199730    -1.13690
O743        O  0.36905667  0.20325277  0.17100584    -0.72880
C744        C  0.38377370  0.19175837  0.19366950     0.97840
C745        C  0.26187337  0.16960009  0.23868546     0.94230
Al746      Al  0.27623836  0.17660696  0.17494359     1.55560
O747        O  0.32399361  0.20701978  0.24951938    -0.77500
C748        C  0.30519782  0.19402531  0.12003457     0.98400
C749        C  0.30615054  0.11810846  0.19371945     0.93280
O750        O  0.33015719  0.13124546  0.20467936    -0.82820
C751        C  0.98451107  0.24736066  0.24933503     0.00080
C752        C  0.01607479  0.24629083  0.24953770     0.00080
C753        C  0.03536969  0.26654010  0.22893342    -0.00640
C754        C  0.04365550  0.29644765  0.23905666    -0.12510
C755        C  0.06902594  0.31226482  0.22577516     0.01600
C756        C  0.08596728  0.29841392  0.20117048    -0.00730
C757        C  0.07416219  0.27089389  0.18812673    -0.12450
C758        C  0.05031551  0.25431472  0.20247931     0.01480
H759        H  0.03206055  0.30627683  0.25911801     0.14460
H760        H  0.08611380  0.26010526  0.16875586     0.14460
C761        C  0.04449634  0.22337326  0.19120346     0.36110
C762        C  0.07854364  0.34124038  0.23962278     0.36020
N763        N  0.04112540  0.19865704  0.18126582    -0.44230
N764        N  0.08617113  0.36445131  0.25080217    -0.44230
C765        C  0.03384876  0.22775376  0.27286298    -0.00640
C766        C  0.04905020  0.24406786  0.29661486    -0.12510
C767        C  0.07390011  0.23090010  0.31292788     0.01600
C768        C  0.08484606  0.20104903  0.30454451    -0.00730
C769        C  0.06671635  0.18318252  0.28397796    -0.12450
C770        C  0.04098634  0.19611291  0.26857693     0.01480
H771        H  0.04300710  0.26809069  0.30086771     0.14460
H772        H  0.07411542  0.15988511  0.27804175     0.14460
C773        C  0.02350259  0.17681691  0.24750018     0.36110
C774        C  0.08961814  0.25016770  0.33548504     0.36020
N775        N  0.00954687  0.16077725  0.23101746    -0.44230
N776        N  0.10200897  0.26578016  0.35355640    -0.44230
C777        C  0.23266474  0.03377640  0.27383846    -0.00640
C778        C  0.20102156  0.03969374  0.26798388    -0.12510
C779        C  0.18581114  0.06487308  0.28231296     0.01600
C780        C  0.20220707  0.08370709  0.30368758    -0.00730
C781        C  0.23161173  0.07335439  0.31389729    -0.12450
C782        C  0.24731949  0.04963855  0.29841807     0.01480
H783        H  0.18895732  0.02632856  0.25040720     0.14460
H784        H  0.24423307  0.08634064  0.33146228     0.14460
C785        C  0.27950288  0.04428993  0.30636943     0.36110
C786        C  0.15433614  0.07195414  0.27316443     0.36020
N787        N  0.30535256  0.04060183  0.31290603    -0.44230
N788        N  0.12901918  0.07753822  0.26594327    -0.44230
C789        C  0.26989461  0.03402341  0.22831378    -0.00640
C790        C  0.30152950  0.04023743  0.23387756    -0.12510
C791        C  0.31628497  0.06566071  0.21961191     0.01600
C792        C  0.29944095  0.08445408  0.19856475    -0.00730
C793        C  0.26999302  0.07401708  0.18873389    -0.12450
C794        C  0.25466453  0.05020432  0.20428511     0.01480
H795        H  0.31386987  0.02702424  0.25135159     0.14460
H796        H  0.25701756  0.08706665  0.17152690     0.14460
C797        C  0.22226937  0.04529370  0.19698665     0.36110
C798        C  0.34772092  0.07309383  0.22864274     0.36020
N799        N  0.19626205  0.04212930  0.19079999    -0.44230
N800        N  0.37298211  0.07900368  0.23580341    -0.44230
C801        C  0.26836648  0.22803657  0.03486670    -0.00640
C802        C  0.25506817  0.20147823  0.04800534    -0.12510
C803        C  0.26861339  0.18706247  0.07393160     0.01600
C804        C  0.29659388  0.19900967  0.08680353    -0.00730
C805        C  0.31198505  0.22274301  0.07065622    -0.12450
C806        C  0.29795936  0.23762551  0.04536958     0.01480
H807        H  0.23266687  0.19352235  0.03967353     0.14460
H808        H  0.33366196  0.23190615  0.07973769     0.14460
C809        C  0.31331593  0.26451567  0.03283908     0.36110
C810        C  0.25120344  0.16253309  0.08862431     0.36020
N811        N  0.32627677  0.28600896  0.02340125    -0.44230
N812        N  0.23697905  0.14305655  0.10038361    -0.44230
C813        C  0.22829279  0.27083194  0.03418574    -0.00640
C814        C  0.24148358  0.29856401  0.04473263    -0.12510
C815        C  0.22876299  0.31454337  0.07006608     0.01600
C816        C  0.20215054  0.30259530  0.08547427    -0.00730
C817        C  0.18636295  0.27758359  0.07160674    -0.12450
C818        C  0.19929176  0.26158736  0.04632079     0.01480
H819        H  0.26317297  0.30647010  0.03475027     0.14460
H820        H  0.16557194  0.26841622  0.08239960     0.14460
C821        C  0.18335289  0.23449648  0.03480630     0.36110
C822        C  0.24534349  0.34147501  0.08121061     0.36020
N823        N  0.17016301  0.21290308  0.02577921    -0.44230
N824        N  0.25899995  0.36284486  0.09008459    -0.44230
C825        C  0.22640198  0.46571579  0.23736241    -0.00640
C826        C  0.23740978  0.45729196  0.20783394    -0.12510
C827        C  0.22374455  0.43281562  0.19109259     0.01600
C828        C  0.19847795  0.41632020  0.20404673    -0.00730
C829        C  0.18452493  0.42844295  0.23108089    -0.12450
C830        C  0.19858482  0.45234197  0.24807554     0.01480
H831        H  0.25811435  0.46829319  0.19881543     0.14460
H832        H  0.16446807  0.41691227  0.24099157     0.14460
C833        C  0.18544021  0.46054488  0.27775806     0.36110
C834        C  0.23789669  0.42365114  0.16215841     0.36020
N835        N  0.17465124  0.46649384  0.30163117    -0.44230
N836        N  0.24931075  0.41650316  0.13891525    -0.44230
C837        C  0.30018256  0.41545264  0.30595336    -0.00640
C838        C  0.31310128  0.43064297  0.28004371    -0.12510
C839        C  0.29776634  0.45562636  0.26592770     0.01600
C840        C  0.26912392  0.46596748  0.27787184    -0.00730
C841        C  0.25873048  0.45392674  0.30622421    -0.12450
C842        C  0.27422309  0.42924886  0.32066553     0.01480
H843        H  0.33355257  0.42106581  0.26889117     0.14460
H844        H  0.23714345  0.46215433  0.31596905     0.14460
C845        C  0.26091032  0.41680690  0.34875396     0.36110
C846        C  0.31056319  0.46852993  0.23782143     0.36020
N847        N  0.25019859  0.40695890  0.37130857    -0.44230
N848        N  0.32092144  0.47883113  0.21530568    -0.44230
C849        C  0.19752478  0.58192504  0.20358857    -0.00640
C850        C  0.18447248  0.57200994  0.23172400    -0.12510
C851        C  0.19839901  0.54829253  0.24902820     0.01600
C852        C  0.22531975  0.53340421  0.23773037    -0.00730
C853        C  0.23523600  0.53986652  0.20740378    -0.12450
C854        C  0.22154366  0.56387545  0.19024005     0.01480
H855        H  0.16566726  0.58515192  0.24210683     0.14460
H856        H  0.25531867  0.52786941  0.19810576     0.14460
C857        C  0.23427098  0.57115279  0.16010921     0.36110
C858        C  0.18570210  0.54156602  0.27919991     0.36020
N859        N  0.24449789  0.57705995  0.13599624    -0.44230
N860        N  0.17453609  0.53692316  0.30316140    -0.44230
C861        C  0.23018441  0.72748707  0.03509228    -0.00640
C862        C  0.24879228  0.70586665  0.05084271    -0.12510
C863        C  0.23706990  0.68849947  0.07563956     0.01600
C864        C  0.20608195  0.69315750  0.08559894    -0.00730
C865        C  0.18641653  0.71160365  0.06710821    -0.12450
C866        C  0.19810000  0.72846168  0.04179632     0.01480
H867        H  0.27332057  0.70429345  0.04530776     0.14460
H868        H  0.16245771  0.71501962  0.07412178     0.14460
C869        C  0.17696948  0.74795577  0.02465679     0.36110
C870        C  0.25865136  0.66926279  0.09266197     0.36020
N871        N  0.15944183  0.76322037  0.01114462    -0.44230
N872        N  0.27615165  0.65395612  0.10616644    -0.44230
C873        C  0.30359989  0.58562834  0.30017491    -0.00640
C874        C  0.28302440  0.56869524  0.31899230    -0.12510
C875        C  0.26647020  0.54322512  0.30716309     0.01600
C876        C  0.27022882  0.53441899  0.27581983    -0.00730
C877        C  0.29389820  0.54852311  0.25847573    -0.12450
C878        C  0.31071067  0.57376592  0.27032943     0.01480
H879        H  0.27772725  0.57710703  0.34213634     0.14460
H880        H  0.29760651  0.54137701  0.23462771     0.14460
C881        C  0.33221913  0.58910720  0.24974986     0.36110
C882        C  0.24442496  0.52811677  0.32722214     0.36020
N883        N  0.34937056  0.60128789  0.23307889    -0.44230
N884        N  0.22715693  0.51631394  0.34403857    -0.44230
C885        C  0.19832849  0.91495669  0.29698159    -0.00640
C886        C  0.22305253  0.92863957  0.31349888    -0.12510
C887        C  0.23954526  0.95377152  0.30104181     0.01600
C888        C  0.23107204  0.96581412  0.27179801    -0.00730
C889        C  0.20357184  0.95545175  0.25783537    -0.12450
C890        C  0.18708644  0.93036669  0.27011334     0.01480
H891        H  0.23163140  0.91782547  0.33454100     0.14460
H892        H  0.19626532  0.96541658  0.23591107     0.14460
C893        C  0.16033417  0.91955130  0.25295200     0.36110
C894        C  0.26622555  0.96522056  0.31778695     0.36020
N895        N  0.13906712  0.91108727  0.23880721    -0.44230
N896        N  0.28752019  0.97399081  0.33170665    -0.44230
C897        C  0.27434088  0.96546752  0.23227977    -0.00640
C898        C  0.30026644  0.95160256  0.24637975    -0.12510
C899        C  0.31480322  0.92566594  0.23305616     0.01600
C900        C  0.30376766  0.91358929  0.20442303    -0.00730
C901        C  0.28089475  0.93047655  0.18831987    -0.12450
C902        C  0.26577520  0.95574752  0.20214577     0.01480
H903        H  0.30748119  0.95931650  0.26923624     0.14460
H904        H  0.27241303  0.92189919  0.16617411     0.14460
C905        C  0.23950467  0.96881525  0.18601132     0.36110
C906        C  0.33817851  0.90997876  0.25133063     0.36020
N907        N  0.21841764  0.97832527  0.17229897    -0.44230
N908        N  0.35670032  0.89741311  0.26625046    -0.44230
C909        C  0.26575616  0.77414585  0.03544647    -0.00640
C910        C  0.29732075  0.76750740  0.04048228    -0.12510
C911        C  0.31372265  0.78200229  0.06468941     0.01600
C912        C  0.29850235  0.80375286  0.08400544    -0.00730
C913        C  0.26858493  0.81371673  0.07568913    -0.12450
C914        C  0.25187895  0.79860441  0.05227002     0.01480
H915        H  0.30836690  0.74916950  0.02725290     0.14460
H916        H  0.25659220  0.83053729  0.09009519     0.14460
C917        C  0.21973781  0.80714422  0.04811718     0.36110
C918        C  0.34533421  0.77250918  0.07075589     0.36020
N919        N  0.19408971  0.81484428  0.04557750    -0.44230
N920        N  0.37068994  0.76493411  0.07561013    -0.44230
C921        C  0.03346151  0.72694095  0.22371927    -0.00640
C922        C  0.04723770  0.74070946  0.19764828    -0.12510
C923        C  0.07259875  0.72684992  0.18267392     0.01600
C924        C  0.08540776  0.69908815  0.19464798    -0.00730
C925        C  0.06860786  0.68316257  0.21770245    -0.12450
C926        C  0.04273839  0.69675986  0.23212134     0.01480
H927        H  0.03974132  0.76351069  0.19037130     0.14460
H928        H  0.07735513  0.66128197  0.22648767     0.14460
C929        C  0.02749091  0.67998749  0.25668452     0.36110
C930        C  0.08668376  0.74339914  0.15721578     0.36020
N931        N  0.01532626  0.66588957  0.27599676    -0.44230
N932        N  0.09783052  0.75667264  0.13673184    -0.44230
C933        C  0.03377538  0.76850542  0.26528941    -0.00640
C934        C  0.04674420  0.79501311  0.25173970    -0.12510
C935        C  0.07183804  0.81047182  0.26570537     0.01600
C936        C  0.08414633  0.79963863  0.29432477    -0.00730
C937        C  0.06803481  0.77593641  0.30983781    -0.12450
C938        C  0.04335430  0.76016599  0.29553227     0.01480
H939        H  0.03889046  0.80222058  0.22895086     0.14460
H940        H  0.07659054  0.76769868  0.33205207     0.14460
C941        C  0.02991671  0.73431595  0.31185432     0.36110
C942        C  0.08638092  0.83485631  0.24805353     0.36020
N943        N  0.01952343  0.71396604  0.32589238    -0.44230
N944        N  0.09785019  0.85415629  0.23339697    -0.44230
C945        C  0.26832106  0.72828402  0.46705128    -0.00640
C946        C  0.29929791  0.73537249  0.46004037    -0.12510
C947        C  0.31441494  0.72080685  0.43516924     0.01600
C948        C  0.29838022  0.69858476  0.41696397    -0.00730
C949        C  0.26952396  0.68771982  0.42768830    -0.12450
C950        C  0.25443150  0.70244403  0.45250041     0.01480
H951        H  0.31087778  0.75398695  0.47230916     0.14460
H952        H  0.25715269  0.67003389  0.41469599     0.14460
C953        C  0.22402015  0.69168803  0.46152876     0.36110
C954        C  0.34547107  0.73078066  0.42745937     0.36020
N955        N  0.19974884  0.68279737  0.46886709    -0.44230
N956        N  0.37037811  0.73886021  0.42143770    -0.44230
C957        C  0.22992743  0.77277616  0.46520871    -0.00640
C958        C  0.19918896  0.76480144  0.45737895    -0.12510
C959        C  0.18416728  0.77850055  0.43167481     0.01600
C960        C  0.19956111  0.80171577  0.41425452    -0.00730
C961        C  0.22806321  0.81303139  0.42576856    -0.12450
C962        C  0.24391958  0.79788328  0.44965401     0.01480
H963        H  0.18790411  0.74603895  0.46963474     0.14460
H964        H  0.24011547  0.83136803  0.41350063     0.14460
C965        C  0.27588016  0.80659872  0.45497837     0.36110
C966        C  0.15431075  0.76639680  0.42233563     0.36020
N967        N  0.30153245  0.81395778  0.45841018    -0.44230
N968        N  0.13041189  0.75657081  0.41482694    -0.44230
C969        C  0.30042641  0.70200355  0.58527999    -0.00640
C970        C  0.31389224  0.72838498  0.57157751    -0.12510
C971        C  0.29934324  0.74380030  0.54690112     0.01600
C972        C  0.27097937  0.73259522  0.53490639    -0.00730
C973        C  0.26006240  0.70372763  0.54523895    -0.12450
C974        C  0.27453326  0.68829114  0.57013409     0.01480
H975        H  0.33439706  0.73875729  0.58198731     0.14460
H976        H  0.23890359  0.69428976  0.53531402     0.14460
C977        C  0.26066143  0.65987195  0.58102907     0.36110
C978        C  0.31331527  0.77198258  0.53563323     0.36020
N979        N  0.24953257  0.63704221  0.58966356    -0.44230
N980        N  0.32535595  0.79427801  0.52685220    -0.44230
C981        C  0.30422656  0.79835789  0.91840008    -0.00640
C982        C  0.28078293  0.81496812  0.93407162    -0.12510
C983        C  0.26359869  0.80131579  0.95805542     0.01600
C984        C  0.27053325  0.77086712  0.96761432    -0.00730
C985        C  0.29700546  0.75624120  0.95541215    -0.12450
C986        C  0.31389813  0.76962399  0.93100487     0.01480
H987        H  0.27338132  0.83728751  0.92515883     0.14460
H988        H  0.30302739  0.73315819  0.96324503     0.14460
C989        C  0.33853738  0.75155569  0.91720296     0.36110
C990        C  0.23705914  0.81788862  0.96996938     0.36020
N991        N  0.35821530  0.73693705  0.90618079    -0.44230
N992        N  0.21571950  0.83156631  0.97888739    -0.44230
C993        C  0.19645589  0.79732017  0.58651413    -0.00640
C994        C  0.21706617  0.81527453  0.56885337    -0.12510
C995        C  0.23250068  0.80273506  0.54310486     0.01600
C996        C  0.22703485  0.77164487  0.53429224    -0.00730
C997        C  0.20278640  0.75551314  0.54885514    -0.12450
C998        C  0.18759287  0.76786635  0.57486720     0.01480
H999        H  0.22347484  0.83822086  0.57699985     0.14460
H1000       H  0.19766215  0.73195628  0.54168296     0.14460
C1001       C  0.16605285  0.74802222  0.59110724     0.36110
C1002       C  0.25513799  0.82205187  0.52803341     0.36020
N1003       N  0.14894068  0.73191168  0.60406670    -0.44230
N1004       N  0.27269252  0.83909856  0.51704781    -0.44230
C1005       C  0.08554705  0.80354247  0.70263268    -0.00640
C1006       C  0.07098710  0.77948860  0.68596937    -0.12510
C1007       C  0.04658317  0.76244217  0.69891680     0.01600
C1008       C  0.03476802  0.77065922  0.72832449    -0.00730
C1009       C  0.04581729  0.79784781  0.74258135    -0.12450
C1010       C  0.07122725  0.81415651  0.73025529     0.01480
H1011       H  0.08125176  0.77137384  0.66444338     0.14460
H1012       H  0.03647041  0.80473462  0.76489795     0.14460
C1013       C  0.08414436  0.83920501  0.74842922     0.36110
C1014       C  0.03704778  0.73464514  0.68294191     0.36020
N1015       N  0.09449527  0.85919051  0.76313842    -0.44230
N1016       N  0.03068275  0.71223186  0.66957425    -0.44230
C1017       C  0.19662667  0.70338964  0.91524972    -0.00640
C1018       C  0.21950468  0.68733919  0.93234262    -0.12510
C1019       C  0.23458560  0.70133586  0.95768328     0.01600
C1020       C  0.22678862  0.73187988  0.96626407    -0.00730
C1021       C  0.20152874  0.74634289  0.95169535    -0.12450
C1022       C  0.18605994  0.73231071  0.92676797     0.01480
H1023       H  0.22766400  0.66499930  0.92413634     0.14460
H1024       H  0.19521583  0.76971281  0.95839448     0.14460
C1025       C  0.16202917  0.75005454  0.91147270     0.36110
C1026       C  0.25966054  0.68495818  0.97275039     0.36020
N1027       N  0.14285075  0.76449147  0.89934828    -0.44230
N1028       N  0.27974767  0.67175405  0.98480974    -0.44230
C1029       C  0.08448087  0.69578841  0.79716088    -0.00640
C1030       C  0.06787492  0.71926866  0.81276259    -0.12510
C1031       C  0.04342884  0.73509504  0.79814502     0.01600
C1032       C  0.03485720  0.72710493  0.76755848    -0.00730
C1033       C  0.04848932  0.70097205  0.75378591    -0.12450
C1034       C  0.07280563  0.68500817  0.76834996     0.01480
H1035       H  0.07612242  0.72753028  0.83511646     0.14460
H1036       H  0.04162320  0.69420607  0.73059432     0.14460
C1037       C  0.08737924  0.66006644  0.75133922     0.36110
C1038       C  0.02962683  0.76123331  0.81389577     0.36020
N1039       N  0.09895716  0.64013383  0.73753486    -0.44230
N1040       N  0.01873067  0.78219819  0.82667750    -0.44230
C1041       C  0.46710332  0.73525266  0.72344713    -0.00640
C1042       C  0.45566180  0.71032851  0.74079302    -0.12510
C1043       C  0.43135556  0.69192022  0.72951354     0.01600
C1044       C  0.41694613  0.69943718  0.70079536    -0.00730
C1045       C  0.43197427  0.72090679  0.68139728    -0.12450
C1046       C  0.45723444  0.73846003  0.69233962     0.01480
H1047       H  0.46437906  0.70650702  0.76412484     0.14460
H1048       H  0.42244272  0.72594837  0.65863297     0.14460
C1049       C  0.47165509  0.76004380  0.67137668     0.36110
C1050       C  0.42031381  0.66717406  0.74918455     0.36020
N1051       N  0.48288493  0.77668016  0.65359233    -0.44230
N1052       N  0.41154619  0.64739620  0.76504005    -0.44230
C1053       C  0.46531594  0.77992694  0.76144635    -0.00640
C1054       C  0.45990663  0.77036954  0.79214253    -0.12510
C1055       C  0.43542290  0.78300708  0.80956891     0.01600
C1056       C  0.41535965  0.80513511  0.79599973    -0.00730
C1057       C  0.42340724  0.81748837  0.76689204    -0.12450
C1058       C  0.44791456  0.80496111  0.74954348     0.01480
H1059       H  0.47325170  0.75145374  0.80174127     0.14460
H1060       H  0.40865096  0.83483052  0.75616072     0.14460
C1061       C  0.45322518  0.81706882  0.71881890     0.36110
C1062       C  0.43041962  0.77176938  0.84071449     0.36020
N1063       N  0.45692975  0.82750660  0.69437050    -0.44230
N1064       N  0.42649751  0.76296081  0.86577213    -0.44230
C1065       C  0.58478189  0.70511905  0.69587392    -0.00640
C1066       C  0.57656760  0.73409538  0.68344155    -0.12510
C1067       C  0.55253171  0.75161412  0.69646421     0.01600
C1068       C  0.53511793  0.73953285  0.72136927    -0.00730
C1069       C  0.54008607  0.70867098  0.73042907    -0.12450
C1070       C  0.56495969  0.69152887  0.71820168     0.01480
H1071       H  0.59123981  0.74483415  0.66607620     0.14460
H1072       H  0.52611254  0.69878925  0.74880475     0.14460
C1073       C  0.57098982  0.66101984  0.73059265     0.36110
C1074       C  0.54800299  0.78283384  0.68536015     0.36020
N1075       N  0.57586502  0.63661036  0.74060919    -0.44230
N1076       N  0.54470971  0.80781624  0.67614998    -0.44230
C1077       C  0.53388869  0.77915868  0.76469981    -0.00640
C1078       C  0.54440572  0.80882406  0.75654082    -0.12510
C1079       C  0.57008556  0.82228021  0.77173126     0.01600
C1080       C  0.58515659  0.80611311  0.79617505    -0.00730
C1081       C  0.57080075  0.77910669  0.80761143    -0.12450
C1082       C  0.54591221  0.76529710  0.79183037     0.01480
H1083       H  0.53423463  0.82037044  0.73667512     0.14460
H1084       H  0.58104669  0.76681910  0.82705576     0.14460
C1085       C  0.53483392  0.73565687  0.80269662     0.36110
C1086       C  0.58190888  0.85119049  0.75977928     0.36020
N1087       N  0.52603968  0.71197097  0.81170521    -0.44230
N1088       N  0.59136765  0.87433342  0.75006517    -0.44230
C1089       C  0.91578411  0.80231763  0.70055349    -0.00640
C1090       C  0.92905979  0.77618821  0.68622002    -0.12510
C1091       C  0.95291561  0.75954007  0.70056147     0.01600
C1092       C  0.96631354  0.77061651  0.72835300    -0.00730
C1093       C  0.95696409  0.79976885  0.73962948    -0.12450
C1094       C  0.93149572  0.81544738  0.72637046     0.01480
H1095       H  0.91798357  0.76618321  0.66587323     0.14460
H1096       H  0.96767398  0.80891361  0.76053357     0.14460
C1097       C  0.92029867  0.84305022  0.74169191     0.36110
C1098       C  0.95991497  0.72935483  0.68802207     0.36020
N1099       N  0.91131755  0.86512624  0.75408843    -0.44230
N1100       N  0.96404875  0.70519784  0.67706737    -0.44230
C1101       C  0.91613418  0.70576604  0.80527278    -0.00640
C1102       C  0.93358985  0.68759329  0.78450185    -0.12510
C1103       C  0.95873096  0.70021552  0.76814439     0.01600
C1104       C  0.96659817  0.73171375  0.77233013    -0.00730
C1105       C  0.95219947  0.74829814  0.79639976    -0.12450
C1106       C  0.92738909  0.73561296  0.81309483     0.01480
H1107       H  0.92575864  0.66435700  0.77883486     0.14460
H1108       H  0.95879831  0.77215665  0.80066155     0.14460
C1109       C  0.91187059  0.75534843  0.83531853     0.36110
C1110       C  0.97438825  0.68075803  0.74588621     0.36020
N1111       N  0.89958168  0.77137218  0.85304776    -0.44230
N1112       N  0.98664331  0.66435617  0.72848660    -0.44230
C1113       C  0.69747780  0.58653161  0.70362280    -0.00640
C1114       C  0.72082272  0.57042852  0.68727332    -0.12510
C1115       C  0.73737462  0.54611493  0.70121665     0.01600
C1116       C  0.73044163  0.53743910  0.73194030    -0.00730
C1117       C  0.70461054  0.55070015  0.74663531    -0.12450
C1118       C  0.68769047  0.57460575  0.73259693     0.01480
H1119       H  0.72834896  0.57893246  0.66482788     0.14460
H1120       H  0.69897185  0.54391421  0.77014527     0.14460
C1121       C  0.66283361  0.58856047  0.75025475     0.36110
C1122       C  0.76313078  0.53251468  0.68465433     0.36020
N1123       N  0.64293374  0.59958472  0.76456457    -0.44230
N1124       N  0.78382136  0.52175268  0.67129919    -0.44230
C1125       C  0.77402373  0.53698393  0.77108532    -0.00640
C1126       C  0.79882539  0.55198637  0.75642037    -0.12510
C1127       C  0.81437674  0.57670374  0.77062492     0.01600
C1128       C  0.80408638  0.58790007  0.79980463    -0.00730
C1129       C  0.78156032  0.57054949  0.81594623    -0.12450
C1130       C  0.76666228  0.54513795  0.80189693     0.01480
H1131       H  0.80467771  0.54581370  0.73275621     0.14460
H1132       H  0.77358531  0.57852505  0.83845479     0.14460
C1133       C  0.74203465  0.52963999  0.81842575     0.36110
C1134       C  0.83818723  0.59212065  0.75279700     0.36020
N1135       N  0.72232939  0.51715860  0.83170857    -0.44230
N1136       N  0.85721285  0.60428886  0.73828110    -0.44230
C1137       C  0.70254248  0.41899901  0.69914567    -0.00640
C1138       C  0.68631878  0.43600113  0.72182575    -0.12510
C1139       C  0.69998434  0.46172399  0.73639756     0.01600
C1140       C  0.73089709  0.46995128  0.72907081    -0.00730
C1141       C  0.74501866  0.45609986  0.70327867    -0.12450
C1142       C  0.73063786  0.43152752  0.68753444     0.01480
H1143       H  0.66411483  0.42754696  0.73017773     0.14460
H1144       H  0.76835871  0.46297754  0.69683584     0.14460
C1145       C  0.74677869  0.41811015  0.66143115     0.36110
C1146       C  0.68276006  0.47733480  0.76052050     0.36020
N1147       N  0.75973996  0.40773393  0.64031313    -0.44230
N1148       N  0.66860053  0.48947536  0.77986462    -0.44230
C1149       C  0.79290809  0.41376725  0.80335189    -0.00640
C1150       C  0.81253824  0.43399338  0.78689833    -0.12510
C1151       C  0.80053813  0.46050182  0.77188535     0.01600
C1152       C  0.76853027  0.46767767  0.77414824    -0.00730
C1153       C  0.75020594  0.44999509  0.79407501    -0.12450
C1154       C  0.76119059  0.42270965  0.80728468     0.01480
H1155       H  0.83674740  0.42781404  0.78359999     0.14460
H1156       H  0.72582167  0.45570671  0.79678463     0.14460
C1157       C  0.73752351  0.40269524  0.82025156     0.36110
C1158       C  0.82130278  0.47865492  0.75306989     0.36020
N1159       N  0.71817516  0.38657568  0.82958614    -0.44230
N1160       N  0.83869413  0.49293683  0.73846043    -0.44230
C1161       C  0.77715671  0.03735808  0.73055365    -0.00640
C1162       C  0.77146667  0.04332673  0.69897150    -0.12510
C1163       C  0.78467500  0.06930303  0.68430353     0.01600
C1164       C  0.80501802  0.08902499  0.70099913    -0.00730
C1165       C  0.81431441  0.08002263  0.73095074    -0.12450
C1166       C  0.80015220  0.05500474  0.74599064     0.01480
H1167       H  0.75464408  0.02931723  0.68652385     0.14460
H1168       H  0.83007742  0.09464060  0.74413220     0.14460
C1169       C  0.80804979  0.04967812  0.77812405     0.36110
C1170       C  0.77551502  0.07630009  0.65282199     0.36020
N1171       N  0.81471040  0.04595474  0.80390764    -0.44230
N1172       N  0.76814774  0.08195165  0.62759166    -0.44230
C1173       C  0.69951737  0.08384982  0.79736963    -0.00640
C1174       C  0.68961234  0.07319695  0.76804551    -0.12510
C1175       C  0.70619441  0.05034635  0.75229242     0.01600
C1176       C  0.73122853  0.03537668  0.76712281    -0.00730
C1177       C  0.73661661  0.04116821  0.79878295    -0.12450
C1178       C  0.72137106  0.06572247  0.81392208     0.01480
H1179       H  0.67173913  0.08567760  0.75539087     0.14460
H1180       H  0.75464280  0.02842144  0.81083863     0.14460
C1181       C  0.73039326  0.07317396  0.84534316     0.36110
C1182       C  0.69904905  0.04544287  0.71988109     0.36020
N1183       N  0.73763685  0.07906945  0.87056824    -0.44230
N1184       N  0.69307070  0.04229948  0.69384335    -0.44230
C1185       C  0.70414971  0.91842592  0.79990282    -0.00640
C1186       C  0.68923439  0.93342050  0.77498283    -0.12510
C1187       C  0.70384951  0.95735752  0.75860925     0.01600
C1188       C  0.73355848  0.96773236  0.76786010    -0.00730
C1189       C  0.74644224  0.95590396  0.79537216    -0.12450
C1190       C  0.73223414  0.93134968  0.81134151     0.01480
H1191       H  0.66747576  0.92421492  0.76612401     0.14460
H1192       H  0.76891987  0.96425288  0.80310620     0.14460
C1193       C  0.74894287  0.91790237  0.83713078     0.36110
C1194       C  0.68885700  0.96855861  0.73085684     0.36020
N1195       N  0.76254235  0.90714292  0.85768403    -0.44230
N1196       N  0.67617199  0.97660292  0.70856148    -0.44230
C1197       C  0.77418066  0.96871229  0.72546013    -0.00640
C1198       C  0.76074187  0.95663254  0.69832960    -0.12510
C1199       C  0.77377174  0.93090297  0.68326616     0.01600
C1200       C  0.80117078  0.91715686  0.69532641    -0.00730
C1201       C  0.81719812  0.93276636  0.71921808    -0.12450
C1202       C  0.80372770  0.95800727  0.73464118     0.01480
H1203       H  0.73853083  0.96550813  0.69049381     0.14460
H1204       H  0.83863015  0.92306226  0.72828086     0.14460
C1205       C  0.81934306  0.97026246  0.76165367     0.36110
C1206       C  0.75627080  0.91707692  0.65815601     0.36020
N1207       N  0.83228004  0.97953704  0.78334100    -0.44230
N1208       N  0.74203674  0.90600599  0.63817283    -0.44230
C1209       C  0.73073426  0.72991906  0.53521436    -0.00640
C1210       C  0.74683226  0.70570078  0.54993663    -0.12510
C1211       C  0.73394351  0.68980797  0.57520367     0.01600
C1212       C  0.70438284  0.69856508  0.58666689    -0.00730
C1213       C  0.68667000  0.71971143  0.56916710    -0.12450
C1214       C  0.69944076  0.73519791  0.54353546     0.01480
H1215       H  0.77049621  0.70059857  0.54311443     0.14460
H1216       H  0.66363752  0.72613020  0.57711176     0.14460
C1217       C  0.68031432  0.75758765  0.52766287     0.36110
C1218       C  0.75315504  0.66714412  0.59074208     0.36020
N1219       N  0.66413138  0.77509415  0.51526075    -0.44230
N1220       N  0.76866658  0.64899155  0.60307508    -0.44230
C1221       C  0.77076525  0.77294537  0.53401747    -0.00640
C1222       C  0.79963957  0.76105991  0.54366011    -0.12510
C1223       C  0.81568998  0.77441339  0.56882767     0.01600
C1224       C  0.80325780  0.80092154  0.58376768    -0.00730
C1225       C  0.77782256  0.81591570  0.56983016    -0.12450
C1226       C  0.76060793  0.80143831  0.54647076     0.01480
H1227       H  0.80812808  0.73964601  0.53356442     0.14460
H1228       H  0.76849205  0.83682361  0.58032411     0.14460
C1229       C  0.73065516  0.81458172  0.53932275     0.36110
C1230       C  0.84271783  0.75847675  0.58069126     0.36020
N1231       N  0.70671250  0.82608921  0.53517231    -0.44230
N1232       N  0.86432214  0.74558836  0.59021728    -0.44230
C1233       C  0.72618602  0.73301141  0.46683425    -0.00640
C1234       C  0.69971723  0.74645888  0.45346816    -0.12510
C1235       C  0.68379491  0.73183117  0.42917850     0.01600
C1236       C  0.69503258  0.70335400  0.41727966    -0.00730
C1237       C  0.71865892  0.68788027  0.43384280    -0.12450
C1238       C  0.73438527  0.70253817  0.45833297     0.01480
H1239       H  0.69276205  0.76950676  0.46037420     0.14460
H1240       H  0.72714967  0.66571267  0.42549853     0.14460
C1241       C  0.76062602  0.68699063  0.47227565     0.36110
C1242       C  0.65855170  0.74859987  0.41475668     0.36020
N1243       N  0.78165237  0.67438197  0.48333694    -0.44230
N1244       N  0.63840599  0.76225680  0.40331293    -0.44230
C1245       C  0.91751781  0.79951839  0.29808868    -0.00640
C1246       C  0.92991635  0.81243478  0.27083019    -0.12510
C1247       C  0.95410928  0.79752098  0.25483095     0.01600
C1248       C  0.96583639  0.76901911  0.26583922    -0.00730
C1249       C  0.95660918  0.75871322  0.29522664    -0.12450
C1250       C  0.93340982  0.77424174  0.31183872     0.01480
H1251       H  0.91879037  0.83237296  0.26030138     0.14460
H1252       H  0.96596247  0.73734134  0.30435876     0.14460
C1253       C  0.92482187  0.76223645  0.34190926     0.36110
C1254       C  0.96529477  0.81118239  0.22645299     0.36020
N1255       N  0.91811270  0.75260416  0.36604400    -0.44230
N1256       N  0.97426549  0.82287651  0.20403442    -0.44230
C1257       C  0.76986056  0.77227768  0.46567200    -0.00640
C1258       C  0.79710352  0.75805206  0.45467316    -0.12510
C1259       C  0.81357019  0.77033838  0.42930723     0.01600
C1260       C  0.80324199  0.79806381  0.41495824    -0.00730
C1261       C  0.77888812  0.81452010  0.42930150    -0.12450
C1262       C  0.76157816  0.80150489  0.45352595     0.01480
H1263       H  0.80400393  0.73582970  0.46412659     0.14460
H1264       H  0.77081376  0.83604321  0.41909445     0.14460
C1265       C  0.73345791  0.81725189  0.46251846     0.36110
C1266       C  0.83862391  0.75204958  0.41663451     0.36020
N1267       N  0.71076455  0.83040310  0.46837982    -0.44230
N1268       N  0.85854360  0.73709418  0.40655104    -0.44230
C1269       C  0.91238491  0.69350061  0.20119742    -0.00640
C1270       C  0.93012354  0.71419593  0.18327888    -0.12510
C1271       C  0.95598193  0.72962236  0.19592366     0.01600
C1272       C  0.96440661  0.72462853  0.22721941    -0.00730
C1273       C  0.94932632  0.70095060  0.24365703    -0.12450
C1274       C  0.92372472  0.68522386  0.23097217     0.01480
H1275       H  0.92213721  0.72041997  0.16021190     0.14460
H1276       H  0.95605018  0.69633613  0.26746134     0.14460
C1277       C  0.90758419  0.66353153  0.25069953     0.36110
C1278       C  0.97194254  0.75182812  0.17674897     0.36020
N1279       N  0.89478302  0.64622563  0.26671241    -0.44230
N1280       N  0.98445747  0.76920612  0.16059917    -0.44230
C1281       C  0.69896218  0.80453340  0.08593342    -0.00640
C1282       C  0.68436053  0.78009761  0.06988846    -0.12510
C1283       C  0.69899809  0.76527113  0.04491805     0.01600
C1284       C  0.72845166  0.77544494  0.03486164    -0.00730
C1285       C  0.74080799  0.80266138  0.04773783    -0.12450
C1286       C  0.72650336  0.81725181  0.07312169     0.01480
H1287       H  0.66295344  0.77038172  0.07889305     0.14460
H1288       H  0.76291688  0.81127299  0.03951121     0.14460
C1289       C  0.74267564  0.84295837  0.08735927     0.36110
C1290       C  0.68454401  0.73789502  0.03217245     0.36020
N1291       N  0.75586867  0.86344371  0.09872061    -0.44230
N1292       N  0.67248327  0.71597513  0.02239879    -0.44230
C1293       C  0.77016076  0.73408417  0.03380110    -0.00640
C1294       C  0.75896594  0.70493367  0.04258521    -0.12510
C1295       C  0.77286127  0.68855622  0.06699442     0.01600
C1296       C  0.79810168  0.70184717  0.08359109    -0.00730
C1297       C  0.81220761  0.72853847  0.07137691    -0.12450
C1298       C  0.79845908  0.74467564  0.04663724     0.01480
H1299       H  0.73792325  0.69601079  0.03195216     0.14460
H1300       H  0.83210927  0.73866542  0.08309463     0.14460
C1301       C  0.81308175  0.77279127  0.03606873     0.36110
C1302       C  0.75899211  0.65947797  0.07614072     0.36020
N1303       N  0.82540469  0.79513980  0.02782453    -0.44230
N1304       N  0.74775231  0.63626355  0.08351613    -0.44230
C1305       C  0.79789260  0.70252218  0.91637309    -0.00640
C1306       C  0.77008637  0.68975414  0.92770998    -0.12510
C1307       C  0.75406958  0.70384998  0.95231613     0.01600
C1308       C  0.76590736  0.73115536  0.96602483    -0.00730
C1309       C  0.79581566  0.74106159  0.95786965    -0.12450
C1310       C  0.81203010  0.72677994  0.93353327     0.01480
H1311       H  0.75916456  0.67065437  0.91544410     0.14460
H1312       H  0.80564528  0.76133077  0.96905455     0.14460
C1313       C  0.84221609  0.73885936  0.92535049     0.36110
C1314       C  0.72484961  0.69062820  0.96186863     0.36020
N1315       N  0.86642895  0.74852614  0.91885155    -0.44230
N1316       N  0.70155427  0.67946501  0.96922692    -0.44230
C1317       C  0.69622119  0.80401302  0.91618225    -0.00640
C1318       C  0.72189722  0.81760847  0.93129336    -0.12510
C1319       C  0.73679315  0.80259699  0.95598339     0.01600
C1320       C  0.72550181  0.77386279  0.96660826    -0.00730
C1321       C  0.69692243  0.76307932  0.95516000    -0.12450
C1322       C  0.68205715  0.77795356  0.93025084     0.01480
H1323       H  0.73253128  0.83823226  0.92163115     0.14460
H1324       H  0.68728131  0.74177418  0.96408982     0.14460
C1325       C  0.65405867  0.76409407  0.91797454     0.36110
C1326       C  0.76523070  0.81579443  0.96789466     0.36020
N1327       N  0.63159242  0.75293963  0.90822637    -0.44230
N1328       N  0.78799039  0.82679262  0.97708576    -0.44230
C1329       C  0.69972750  0.29875379  0.58907669    -0.00640
C1330       C  0.68592240  0.27074830  0.57976107    -0.12510
C1331       C  0.69786221  0.25345383  0.55496714     0.01600
C1332       C  0.72303686  0.26492003  0.53736306    -0.00730
C1333       C  0.73424849  0.29479709  0.54411797    -0.12450
C1334       C  0.72317525  0.31154579  0.56991247     0.01480
H1335       H  0.66789001  0.26045999  0.59396508     0.14460
H1336       H  0.75350755  0.30396813  0.53077583     0.14460
C1337       C  0.73768280  0.34083283  0.57719166     0.36110
C1338       C  0.68487738  0.22307455  0.54998233     0.36020
N1339       N  0.74949617  0.36425822  0.58290742    -0.44230
N1340       N  0.67326935  0.19907084  0.54688420    -0.44230
C1341       C  0.76659506  0.22594671  0.53401745    -0.00640
C1342       C  0.79300994  0.24215879  0.54403913    -0.12510
C1343       C  0.81166212  0.23060381  0.56801144     0.01600
C1344       C  0.80300902  0.20286126  0.58333660    -0.00730
C1345       C  0.78003924  0.18420504  0.56951285    -0.12450
C1346       C  0.76209811  0.19537022  0.54469698     0.01480
H1347       H  0.79780486  0.26495682  0.53462025     0.14460
H1348       H  0.77412892  0.16204667  0.57976313     0.14460
C1349       C  0.73907661  0.17504868  0.53147102     0.36110
C1350       C  0.83797347  0.24899518  0.57786668     0.36020
N1351       N  0.72132878  0.15756328  0.52137553    -0.44230
N1352       N  0.85904543  0.26374001  0.58574577    -0.44230
C1353       C  0.76984968  0.96484315  0.26871772    -0.00640
C1354       C  0.76380235  0.95722969  0.29990668    -0.12510
C1355       C  0.77969380  0.93268862  0.31463158     0.01600
C1356       C  0.80143107  0.91479492  0.29774182    -0.00730
C1357       C  0.81050863  0.92569479  0.26827324    -0.12450
C1358       C  0.79471071  0.94990401  0.25357922     0.01480
H1359       H  0.74530863  0.96904579  0.31211354     0.14460
H1360       H  0.82810476  0.91335082  0.25513870     0.14460
C1361       C  0.80345744  0.95727052  0.22212264     0.36110
C1362       C  0.77263883  0.92586655  0.34661337     0.36020
N1363       N  0.81136367  0.96234358  0.19697138    -0.44230
N1364       N  0.76740549  0.92068091  0.37243734    -0.44230
C1365       C  0.72350088  0.96684061  0.23258814    -0.00640
C1366       C  0.70154796  0.95019433  0.24973113    -0.12510
C1367       C  0.68614079  0.92474896  0.23681996     0.01600
C1368       C  0.69352960  0.91502292  0.20623568    -0.00730
C1369       C  0.71178366  0.93453971  0.18771217    -0.12450
C1370       C  0.72625521  0.96076833  0.20044440     0.01480
H1371       H  0.69845089  0.95544857  0.27418290     0.14460
H1372       H  0.71665870  0.92798806  0.16388614     0.14460
C1373       C  0.74464176  0.97980289  0.18009117     0.36110
C1374       C  0.66600874  0.90719847  0.25703359     0.36020
N1375       N  0.75876101  0.99463136  0.16274893    -0.44230
N1376       N  0.64993431  0.89340709  0.27351812    -0.44230
C1377       C  0.70058764  0.08531525  0.19882045    -0.00640
C1378       C  0.68347621  0.06900737  0.22141527    -0.12510
C1379       C  0.69662592  0.04399300  0.23769728     0.01600
C1380       C  0.72772113  0.03542690  0.23202709    -0.00730
C1381       C  0.74351305  0.04952505  0.20732413    -0.12450
C1382       C  0.72992980  0.07344472  0.19004095     0.01480
H1383       H  0.66065655  0.07735971  0.22809720     0.14460
H1384       H  0.76723192  0.04274387  0.20236476     0.14460
C1385       C  0.74801843  0.08703093  0.16536588     0.36110
C1386       C  0.67824598  0.02870995  0.26106056     0.36020
N1387       N  0.76252483  0.09768312  0.14545733    -0.44230
N1388       N  0.66296038  0.01646154  0.27940074    -0.44230
C1389       C  0.70259859  0.30383131  0.41601813    -0.00640
C1390       C  0.68316046  0.28498851  0.43405843    -0.12510
C1391       C  0.69466914  0.26908306  0.46004584     0.01600
C1392       C  0.72636043  0.27182861  0.46829307    -0.00730
C1393       C  0.74428701  0.29444862  0.45324657    -0.12450
C1394       C  0.73289610  0.31029746  0.42721537     0.01480
H1395       H  0.65965931  0.28037647  0.42612657     0.14460
H1396       H  0.76837031  0.29761954  0.45999795     0.14460
C1397       C  0.75443158  0.32960830  0.41032699     0.36110
C1398       C  0.67368735  0.24853596  0.47584685     0.36020
N1399       N  0.77196945  0.34486538  0.39690713    -0.44230
N1400       N  0.65550981  0.23263795  0.48751502    -0.44230
C1401       C  0.91338083  0.19598321  0.29642228    -0.00640
C1402       C  0.93124662  0.21777001  0.31314023    -0.12510
C1403       C  0.95675162  0.23281925  0.29942965     0.01600
C1404       C  0.96495529  0.22603416  0.26845679    -0.00730
C1405       C  0.94936039  0.20199832  0.25306175    -0.12450
C1406       C  0.92400019  0.18685934  0.26658987     0.01480
H1407       H  0.92367303  0.22504269  0.33602290     0.14460
H1408       H  0.95555696  0.19652414  0.22932358     0.14460
C1409       C  0.90735956  0.16497237  0.24735558     0.36110
C1410       C  0.97237251  0.25690553  0.31670999     0.36020
N1411       N  0.89421657  0.14771585  0.23145640    -0.44230
N1412       N  0.98476459  0.27621148  0.33072917    -0.44230
C1413       C  0.76419680  0.22688624  0.46647999    -0.00640
C1414       C  0.79459065  0.23654342  0.45916369    -0.12510
C1415       C  0.81107744  0.22287425  0.43437428     0.01600
C1416       C  0.79734106  0.19853546  0.41707039    -0.00730
C1417       C  0.76935282  0.18576063  0.42828239    -0.12450
C1418       C  0.75215325  0.20049406  0.45146789     0.01480
H1419       H  0.80447863  0.25630670  0.47121167     0.14460
H1420       H  0.75867233  0.16638501  0.41621768     0.14460
C1421       C  0.72081725  0.18984855  0.45670243     0.36110
C1422       C  0.84087619  0.23564459  0.42599530     0.36020
N1423       N  0.69573359  0.18080277  0.46007724    -0.44230
N1424       N  0.86485012  0.24579890  0.41935089    -0.44230
C1425       C  0.76755031  0.03249326  0.27514823    -0.00640
C1426       C  0.79651303  0.04190181  0.26386352    -0.12510
C1427       C  0.81245379  0.06656544  0.27781483     0.01600
C1428       C  0.79890486  0.08261094  0.30323084    -0.00730
C1429       C  0.77286079  0.06938703  0.31767331    -0.12450
C1430       C  0.75715777  0.04444772  0.30382747     0.01480
H1431       H  0.80543979  0.03169535  0.24264702     0.14460
H1432       H  0.76274363  0.08048728  0.33787341     0.14460
C1433       C  0.72977159  0.03256292  0.31889679     0.36110
C1434       C  0.84117689  0.07656593  0.26372433     0.36020
N1435       N  0.70829866  0.02296215  0.33184138    -0.44230
N1436       N  0.86412104  0.08448213  0.25222851    -0.44230
C1437       C  0.91632951  0.30352743  0.20445214    -0.00640
C1438       C  0.93258187  0.28133910  0.18687487    -0.12510
C1439       C  0.95703570  0.26426727  0.19987529     0.01600
C1440       C  0.96688629  0.27053917  0.23051219    -0.00730
C1441       C  0.95407579  0.29612131  0.24611414    -0.12450
C1442       C  0.92877584  0.31246432  0.23359457     0.01480
H1443       H  0.92356705  0.27446677  0.16433861     0.14460
H1444       H  0.96183792  0.30143670  0.26948718     0.14460
C1445       C  0.91372272  0.33520679  0.25309340     0.36110
C1446       C  0.96844709  0.23806355  0.18252798     0.36020
N1447       N  0.90165220  0.35325348  0.26892851    -0.44230
N1448       N  0.97637390  0.21697083  0.16792674    -0.44230
C1449       C  0.69312410  0.20154980  0.08439632    -0.00640
C1450       C  0.68302579  0.23110665  0.07530997    -0.12510
C1451       C  0.69829474  0.24723057  0.05172564     0.01600
C1452       C  0.72307004  0.23310288  0.03558872    -0.00730
C1453       C  0.72964968  0.20171917  0.04117514    -0.12450
C1454       C  0.71492445  0.18587006  0.06547859     0.01480
H1455       H  0.66602774  0.24337738  0.08926990     0.14460
H1456       H  0.74820191  0.19045920  0.02841462     0.14460
C1457       C  0.72435180  0.15444156  0.07214273     0.36110
C1458       C  0.68966478  0.27913906  0.04677679     0.36020
N1459       N  0.73186725  0.12924602  0.07752091    -0.44230
N1460       N  0.68189103  0.30462297  0.04360069    -0.44230
C1461       C  0.76998250  0.26844227  0.03656541    -0.00640
C1462       C  0.79143848  0.25005663  0.05280636    -0.12510
C1463       C  0.80895187  0.26219193  0.07742726     0.01600
C1464       C  0.80449774  0.29335881  0.08679362    -0.00730
C1465       C  0.78612407  0.31267137  0.06791557    -0.12450
C1466       C  0.76917964  0.30058918  0.04274224     0.01480
H1467       H  0.79291520  0.22548466  0.04765564     0.14460
H1468       H  0.78284834  0.33672533  0.07450313     0.14460
C1469       C  0.74979088  0.32147554  0.02521660     0.36110
C1470       C  0.82824297  0.24094658  0.09478836     0.36020
N1471       N  0.73464496  0.33888229  0.01144192    -0.44230
N1472       N  0.84360709  0.22369186  0.10852206    -0.44230
C1473       C  0.70391436  0.19711246  0.91491394    -0.00640
C1474       C  0.68682593  0.22098126  0.92930620    -0.12510
C1475       C  0.69874310  0.23686498  0.95522597     0.01600
C1476       C  0.72797638  0.22856855  0.96753647    -0.00730
C1477       C  0.74260119  0.20181291  0.95627466    -0.12450
C1478       C  0.73095405  0.18600520  0.93029347     0.01480
H1479       H  0.66571230  0.22948610  0.91850185     0.14460
H1480       H  0.76464070  0.19470954  0.96622319     0.14460
C1481       C  0.74904671  0.16033524  0.91850840     0.36110
C1482       C  0.68173215  0.26318941  0.96690413     0.36020
N1483       N  0.76384219  0.14000506  0.90903912    -0.44230
N1484       N  0.66769233  0.28427668  0.97580630    -0.44230
C1485       C  0.79922589  0.30017904  0.91833640    -0.00640
C1486       C  0.81401923  0.27664699  0.93557100    -0.12510
C1487       C  0.79880364  0.26207453  0.96039014     0.01600
C1488       C  0.76822280  0.27089211  0.96804739    -0.00730
C1489       C  0.75500330  0.29656908  0.95332920    -0.12450
C1490       C  0.77028813  0.31169492  0.92916367     0.01480
H1491       H  0.83637636  0.26782987  0.92803460     0.14460
H1492       H  0.73159592  0.30357617  0.95931658     0.14460
C1493       C  0.75367896  0.33658256  0.91402545     0.36110
C1494       C  0.81406573  0.23671085  0.97603056     0.36020
N1495       N  0.74005308  0.35639287  0.90204106    -0.44230
N1496       N  0.82643023  0.21645017  0.98859765    -0.44230
C1497       C  0.72740502  0.46604829  0.27046840    -0.00640
C1498       C  0.70295511  0.45097705  0.25506393    -0.12510
C1499       C  0.68699068  0.42640690  0.26892151     0.01600
C1500       C  0.69659496  0.41542421  0.29839720    -0.00730
C1501       C  0.71806518  0.43328867  0.31544151    -0.12450
C1502       C  0.73293912  0.45892706  0.30196171     0.01480
H1503       H  0.69768669  0.45701364  0.23121871     0.14460
H1504       H  0.72493965  0.42584738  0.33849423     0.14460
C1505       C  0.75460176  0.47647396  0.32054704     0.36110
C1506       C  0.66332406  0.41104991  0.25070276     0.36020
N1507       N  0.77153588  0.49056114  0.33600208    -0.44230
N1508       N  0.64431484  0.39897465  0.23596341    -0.44230
C1509       C  0.76993978  0.46468487  0.23003799    -0.00640
C1510       C  0.75832656  0.45511429  0.20098099    -0.12510
C1511       C  0.77159512  0.42970461  0.18518034     0.01600
C1512       C  0.79806937  0.41467845  0.19775789    -0.00730
C1513       C  0.81259234  0.42826625  0.22368919    -0.12450
C1514       C  0.79774328  0.45121974  0.24100856     0.01480
H1515       H  0.73713880  0.46548538  0.19213607     0.14460
H1516       H  0.83331633  0.41764846  0.23338764     0.14460
C1517       C  0.80961307  0.45676325  0.27184422     0.36110
C1518       C  0.75567822  0.41778755  0.15815059     0.36020
N1519       N  0.82003686  0.45976292  0.29646298    -0.44230
N1520       N  0.74277915  0.40818332  0.13656871    -0.44230
C1521       C  0.76790779  0.53296844  0.22632365    -0.00640
C1522       C  0.75022583  0.54711454  0.20284603    -0.12510
C1523       C  0.76173758  0.57263145  0.18634370     0.01600
C1524       C  0.79217161  0.58358609  0.19248563    -0.00730
C1525       C  0.81139276  0.56606872  0.21213990    -0.12450
C1526       C  0.79934078  0.54172138  0.22985129     0.01480
H1527       H  0.72614852  0.54037303  0.19970713     0.14460
H1528       H  0.83480557  0.57415073  0.21693028     0.14460
C1529       C  0.81886411  0.52966141  0.25417139     0.36110
C1530       C  0.74012966  0.58961099  0.16706902     0.36020
N1531       N  0.83564685  0.52156845  0.27355019    -0.44230
N1532       N  0.72251566  0.60323897  0.15199114    -0.44230
C1533       C  0.73283822  0.53475658  0.27316137    -0.00640
C1534       C  0.74979631  0.55099783  0.29575103    -0.12510
C1535       C  0.73687759  0.57623033  0.31167469     0.01600
C1536       C  0.70618949  0.58603326  0.30474529    -0.00730
C1537       C  0.68818512  0.56763179  0.28452256    -0.12450
C1538       C  0.70121294  0.54226613  0.26869685     0.01480
H1539       H  0.77409155  0.54538700  0.29934542     0.14460
H1540       H  0.66467699  0.57479119  0.27888377     0.14460
C1541       C  0.68243077  0.52636946  0.24590993     0.36110
C1542       C  0.75721936  0.59368763  0.33189634     0.36020
N1543       N  0.66711316  0.51389873  0.22763595    -0.44230
N1544       N  0.77384293  0.60752749  0.34790638    -0.44230
C1545       C  0.26932057  0.53419365  0.72703874    -0.00640
C1546       C  0.29949799  0.54250863  0.73652603    -0.12510
C1547       C  0.31487028  0.56801210  0.72306853     0.01600
C1548       C  0.30024857  0.58502031  0.69896381    -0.00730
C1549       C  0.27258344  0.57304107  0.68628512    -0.12450
C1550       C  0.25645472  0.54905442  0.70083506     0.01480
H1551       H  0.30983709  0.53092320  0.75633640     0.14460
H1552       H  0.26129058  0.58501395  0.66720885     0.14460
C1553       C  0.22523710  0.54304305  0.69018881     0.36110
C1554       C  0.34416105  0.57762340  0.73631850     0.36020
N1555       N  0.20027529  0.53937955  0.68081518    -0.44230
N1556       N  0.36764401  0.58528519  0.74701071    -0.44230
C1557       C  0.23135061  0.53382544  0.77171713    -0.00640
C1558       C  0.24851033  0.54979558  0.79440278    -0.12510
C1559       C  0.23587879  0.57508890  0.81042257     0.01600
C1560       C  0.20545744  0.58542644  0.80322924    -0.00730
C1561       C  0.18696628  0.56683609  0.78364032    -0.12450
C1562       C  0.19949718  0.54091336  0.76828046     0.01480
H1563       H  0.27276614  0.54397152  0.79795465     0.14460
H1564       H  0.16335167  0.57396727  0.77843224     0.14460
C1565       C  0.17952221  0.52324629  0.74799933     0.36110
C1566       C  0.25618399  0.59194068  0.83119236     0.36020
N1567       N  0.16293740  0.50919779  0.73213669    -0.44230
N1568       N  0.27265842  0.60527764  0.84777506    -0.44230
C1569       C  0.96104980  0.25575309  0.77456326    -0.00640
C1570       C  0.96681572  0.27327103  0.80210302    -0.12510
C1571       C  0.94256395  0.29145014  0.81551361     0.01600
C1572       C  0.91491241  0.29632859  0.79835213    -0.00730
C1573       C  0.91197087  0.28116039  0.76981839    -0.12450
C1574       C  0.93009940  0.25558002  0.76432072     0.01480
H1575       H  0.98856318  0.27162040  0.81429929     0.14460
H1576       H  0.89101951  0.28324798  0.75634051     0.14460
C1577       C  0.91311673  0.22680516  0.76544498     0.36110
C1578       C  0.94658891  0.30494006  0.84587535     0.36020
N1579       N  0.89912063  0.20413691  0.76858157    -0.44230
N1580       N  0.94975531  0.31559704  0.87036099    -0.44230
C1581       C  0.92019484  0.19790487  0.69280897    -0.00640
C1582       C  0.93395223  0.22625013  0.68447692    -0.12510
C1583       C  0.95939977  0.23786864  0.70137157     0.01600
C1584       C  0.97107969  0.22104209  0.72701568    -0.00730
C1585       C  0.96176370  0.19005242  0.73058155    -0.12450
C1586       C  0.93680050  0.17814485  0.71317048     0.01480
H1587       H  0.92225512  0.24134597  0.66809096     0.14460
H1588       H  0.97056254  0.17670946  0.74989934     0.14460
C1589       C  0.92564494  0.14737859  0.72023694     0.36110
C1590       C  0.96985802  0.26905992  0.69530138     0.36020
N1591       N  0.91660411  0.12278693  0.72599049    -0.44230
N1592       N  0.97827672  0.29406633  0.69048110    -0.44230
C1593       C  0.08576067  0.20159642  0.69651032    -0.00640
C1594       C  0.06977111  0.18223067  0.71731751    -0.12510
C1595       C  0.04578455  0.19376939  0.73595919     0.01600
C1596       C  0.03655067  0.22500037  0.73311490    -0.00730
C1597       C  0.04920903  0.24288215  0.70900376    -0.12450
C1598       C  0.07368166  0.23154469  0.69075088     0.01480
H1599       H  0.07843785  0.15901543  0.72163754     0.14460
H1600       H  0.04140564  0.26652346  0.70576145     0.14460
C1601       C  0.08810483  0.25251022  0.66901251     0.36110
C1602       C  0.03301459  0.17361160  0.75934638     0.36020
N1603       N  0.09961695  0.26944382  0.65168007    -0.44230
N1604       N  0.02303552  0.15681116  0.77772281    -0.44230
C1605       C  0.30624233  0.41452708  0.70528311    -0.00640
C1606       C  0.28479791  0.43098865  0.68691231    -0.12510
C1607       C  0.26767332  0.45579136  0.69915799     0.01600
C1608       C  0.27304367  0.46572485  0.72993630    -0.00730
C1609       C  0.29785773  0.45247468  0.74652106    -0.12450
C1610       C  0.31425373  0.42688465  0.73472001     0.01480
H1611       H  0.27859009  0.42204754  0.66416216     0.14460
H1612       H  0.30246722  0.46019658  0.77005060     0.14460
C1613       C  0.33602776  0.41153669  0.75512417     0.36110
C1614       C  0.24238323  0.46768687  0.68072609     0.36020
N1615       N  0.35328980  0.39922135  0.77166964    -0.44230
N1616       N  0.22208529  0.47602966  0.66518218    -0.44230
C1617       C  0.20138312  0.30378441  0.91637137    -0.00640
C1618       C  0.23063060  0.31352946  0.92712321    -0.12510
C1619       C  0.24549564  0.29796860  0.95157913     0.01600
C1620       C  0.23084138  0.27249800  0.96600781    -0.00730
C1621       C  0.19974018  0.26614757  0.95859750    -0.12450
C1622       C  0.18485985  0.28167018  0.93413482     0.01480
H1623       H  0.24349507  0.33083124  0.91420369     0.14460
H1624       H  0.18780319  0.24745096  0.97025995     0.14460
C1625       C  0.15356895  0.27256296  0.92600679     0.36110
C1626       C  0.27656083  0.30743197  0.95985487     0.36020
N1627       N  0.12852907  0.26523519  0.91941149    -0.44230
N1628       N  0.30141686  0.31567958  0.96598598    -0.44230
C1629       C  0.19620797  0.41393647  0.79436450    -0.00640
C1630       C  0.21742622  0.43206896  0.81155827    -0.12510
C1631       C  0.23303081  0.45724270  0.79796487     0.01600
C1632       C  0.22736711  0.46484350  0.76662289    -0.00730
C1633       C  0.20374888  0.44904311  0.75065203    -0.12450
C1634       C  0.18799527  0.42404592  0.76413650     0.01480
H1635       H  0.22397668  0.42483473  0.83477011     0.14460
H1636       H  0.19907793  0.45482963  0.72663127     0.14460
C1637       C  0.16641614  0.40716660  0.74472084     0.36110
C1638       C  0.25668300  0.47300046  0.81577774     0.36020
N1639       N  0.14929171  0.39376249  0.72886783    -0.44230
N1640       N  0.27564277  0.48551285  0.83020217    -0.44230
C1641       C  0.08417971  0.29462708  0.80418264    -0.00640
C1642       C  0.07326015  0.26719714  0.81801445    -0.12510
C1643       C  0.04813958  0.25081793  0.80512064     0.01600
C1644       C  0.03323259  0.26195527  0.77813876    -0.00730
C1645       C  0.04075853  0.29177168  0.76755217    -0.12450
C1646       C  0.06594987  0.30816998  0.78030839     0.01480
H1647       H  0.08616326  0.25681666  0.83698519     0.14460
H1648       H  0.02862119  0.30114885  0.74757791     0.14460
C1649       C  0.07393685  0.33775084  0.76684379     0.36110
C1650       C  0.03864760  0.22223928  0.81955638     0.36020
N1651       N  0.08036568  0.36142704  0.75600826    -0.44230
N1652       N  0.03095535  0.19971694  0.83190082    -0.44230
C1653       C  0.29723944  0.19502438  0.91671320    -0.00640
C1654       C  0.26789184  0.18525712  0.92712189    -0.12510
C1655       C  0.25289119  0.20071131  0.95159938     0.01600
C1656       C  0.26737859  0.22623579  0.96624251    -0.00730
C1657       C  0.29842499  0.23279506  0.95896319    -0.12450
C1658       C  0.31354792  0.21722338  0.93470722     0.01480
H1659       H  0.25514155  0.16789936  0.91403806     0.14460
H1660       H  0.31019264  0.25167111  0.97055179     0.14460
C1661       C  0.34493796  0.22631379  0.92711945     0.36110
C1662       C  0.22182357  0.19121837  0.95973538     0.36020
N1663       N  0.37006538  0.23361975  0.92098121    -0.44230
N1664       N  0.19696295  0.18317090  0.96599293    -0.44230
C1665       C  0.22615737  0.03533526  0.73707259    -0.00640
C1666       C  0.23009918  0.03886024  0.70489218    -0.12510
C1667       C  0.21553390  0.06332660  0.68895216     0.01600
C1668       C  0.19608549  0.08419936  0.70517748    -0.00730
C1669       C  0.18864580  0.07762657  0.73621261    -0.12450
C1670       C  0.20392963  0.05397515  0.75235486     0.01480
H1671       H  0.24633376  0.02402703  0.69269897     0.14460
H1672       H  0.17365124  0.09325667  0.74906423     0.14460
C1673       C  0.19781695  0.05085216  0.78515449     0.36110
C1674       C  0.22229515  0.06770515  0.65644432     0.36020
N1675       N  0.19257521  0.04864471  0.81141054    -0.44230
N1676       N  0.22761915  0.07121941  0.63035381    -0.44230
C1677       C  0.30634035  0.08290153  0.80003217    -0.00640
C1678       C  0.31404195  0.07263089  0.77005588    -0.12510
C1679       C  0.29751673  0.04830366  0.75611428     0.01600
C1680       C  0.27330468  0.03352189  0.77246378    -0.00730
C1681       C  0.26969242  0.03991976  0.80417762    -0.12450
C1682       C  0.28592026  0.06456365  0.81804505     0.01480
H1683       H  0.33014169  0.08594702  0.75605847     0.14460
H1684       H  0.25231074  0.02751263  0.81739225     0.14460
C1685       C  0.27918515  0.07235193  0.84995412     0.36110
C1686       C  0.30439114  0.04036203  0.72428512     0.36020
N1687       N  0.27379186  0.07866535  0.87551487    -0.44230
N1688       N  0.31011652  0.03400625  0.69880758    -0.44230
C1689       C  0.20329555  0.91710232  0.69779003    -0.00640
C1690       C  0.18493576  0.93455844  0.71844045    -0.12510
C1691       C  0.19761004  0.95940196  0.73533047     0.01600
C1692       C  0.22931037  0.96687696  0.73187223    -0.00730
C1693       C  0.24615180  0.95263288  0.70789654    -0.12450
C1694       C  0.23346045  0.92808883  0.69070086     0.01480
H1695       H  0.16147577  0.92694840  0.72357008     0.14460
H1696       H  0.27020854  0.95911371  0.70419914     0.14460
C1697       C  0.25347594  0.91244168  0.66882349     0.36110
C1698       C  0.17793275  0.97547462  0.75708202     0.36020
N1699       N  0.26971473  0.90003110  0.65137340    -0.44230
N1700       N  0.16136158  0.98816061  0.77399924    -0.44230
C1701       C  0.26737563  0.96586465  0.77679256    -0.00640
C1702       C  0.29727767  0.95742519  0.76704997    -0.12510
C1703       C  0.31297723  0.93257337  0.78108159     0.01600
C1704       C  0.29839668  0.91533709  0.80498518    -0.00730
C1705       C  0.27066956  0.92696121  0.81768137    -0.12450
C1706       C  0.25514629  0.95199351  0.80379250     0.01480
H1707       H  0.30743225  0.96881146  0.74707807     0.14460
H1708       H  0.25940219  0.91462213  0.83646144     0.14460
C1709       C  0.22594463  0.96190479  0.81685145     0.36110
C1710       C  0.34305345  0.92388548  0.76902683     0.36020
N1711       N  0.20280003  0.96974712  0.82803189    -0.44230
N1712       N  0.36715415  0.91689469  0.75938191    -0.44230
C1713       C  0.27556557  0.26741041  0.46762591    -0.00640
C1714       C  0.29969179  0.25202267  0.45211715    -0.12510
C1715       C  0.31541127  0.26599180  0.42743798     0.01600
C1716       C  0.30637013  0.29590281  0.41732619    -0.00730
C1717       C  0.28538006  0.31284228  0.43573224    -0.12450
C1718       C  0.27007595  0.29893577  0.46083165     0.01480
H1719       H  0.30475055  0.22809408  0.45779386     0.14460
H1720       H  0.27877017  0.33607930  0.42876062     0.14460
C1721       C  0.24758172  0.31710560  0.47766791     0.36110
C1722       C  0.33789342  0.24739557  0.41089907     0.36020
N1723       N  0.23001640  0.33248161  0.49097365    -0.44230
N1724       N  0.35582555  0.23226270  0.39779291    -0.44230
C1725       C  0.20287856  0.19866370  0.41584970    -0.00640
C1726       C  0.18903368  0.22431390  0.43059876    -0.12510
C1727       C  0.20353457  0.23905277  0.45572140     0.01600
C1728       C  0.23220951  0.22786011  0.46694353    -0.00730
C1729       C  0.24341034  0.19946502  0.45563429    -0.12450
C1730       C  0.22894273  0.18465851  0.43038163     0.01480
H1731       H  0.16836200  0.23477452  0.42065066     0.14460
H1732       H  0.26479502  0.19002996  0.46499987     0.14460
C1733       C  0.24309925  0.15675124  0.41842742     0.36110
C1734       C  0.18936135  0.26673393  0.46809520     0.36020
N1735       N  0.25446351  0.13433910  0.40893683    -0.44230
N1736       N  0.17725375  0.28864518  0.47782083    -0.44230
C1737       C  0.23294468  0.22557413  0.53469422    -0.00640
C1738       C  0.20317653  0.23517429  0.54359952    -0.12510
C1739       C  0.18733233  0.21997814  0.56751290     0.01600
C1740       C  0.20199309  0.19542057  0.58383350    -0.00730
C1741       C  0.22940078  0.18280177  0.57139850    -0.12450
C1742       C  0.24483084  0.19762070  0.54687388     0.01480
H1743       H  0.19324603  0.25590838  0.53350313     0.14460
H1744       H  0.24057218  0.16339335  0.58283715     0.14460
C1745       C  0.27356290  0.18449980  0.53577223     0.36110
C1746       C  0.15731034  0.23192046  0.57662674     0.36020
N1747       N  0.29627472  0.17325878  0.52682422    -0.44230
N1748       N  0.13330825  0.24157536  0.58394838    -0.44230
C1749       C  0.27082058  0.27054418  0.53623801    -0.00640
C1750       C  0.25393560  0.29386552  0.55146199    -0.12510
C1751       C  0.26709733  0.31107676  0.57574841     0.01600
C1752       C  0.29755691  0.30413039  0.58609186    -0.00730
C1753       C  0.31568355  0.28367825  0.56816133    -0.12450
C1754       C  0.30265892  0.26703406  0.54330324     0.01480
H1755       H  0.22967767  0.29737337  0.54563642     0.14460
H1756       H  0.33927804  0.27848923  0.57541273     0.14460
C1757       C  0.32202830  0.24510431  0.52706437     0.36110
C1758       C  0.24742769  0.33307533  0.59166308     0.36020
N1759       N  0.33818772  0.22793303  0.51418427    -0.44230
N1760       N  0.23153892  0.35070558  0.60426610    -0.44230
C1761       C  0.46710284  0.23484813  0.77883651    -0.00640
C1762       C  0.46074643  0.20401508  0.77049813    -0.12510
C1763       C  0.43583924  0.18789054  0.78401247     0.01600
C1764       C  0.41684556  0.20267012  0.80646273    -0.00730
C1765       C  0.42629808  0.23166125  0.81795333    -0.12450
C1766       C  0.45076282  0.24796740  0.80406475     0.01480
H1767       H  0.47358002  0.19342646  0.75160959     0.14460
H1768       H  0.41234605  0.24330266  0.83538495     0.14460
C1769       C  0.45673892  0.27905439  0.81482294     0.36110
C1770       C  0.42886069  0.15711606  0.77273871     0.36020
N1771       N  0.46076781  0.30384461  0.82431021    -0.44230
N1772       N  0.42320932  0.13247816  0.76366293    -0.44230
C1773       C  0.41746336  0.29527649  0.69758278    -0.00640
C1774       C  0.43520609  0.31466488  0.71706023    -0.12510
C1775       C  0.46021298  0.30291158  0.73443112     0.01600
C1776       C  0.46761940  0.27108970  0.73263544    -0.00730
C1777       C  0.45286591  0.25293793  0.70988208    -0.12450
C1778       C  0.42820452  0.26473168  0.69216824     0.01480
H1779       H  0.42763291  0.33832200  0.72102739     0.14460
H1780       H  0.45902423  0.22867491  0.70761375     0.14460
C1781       C  0.41209932  0.24360271  0.67165818     0.36110
C1782       C  0.47615869  0.32363785  0.75535527     0.36020
N1783       N  0.39931308  0.22650514  0.65529500    -0.44230
N1784       N  0.48866780  0.34092425  0.77172839    -0.44230
C1785       C  0.53623207  0.27459566  0.73662623    -0.00640
C1786       C  0.54977314  0.30125617  0.74947527    -0.12510
C1787       C  0.57428549  0.31659632  0.73462816     0.01600
C1788       C  0.58648890  0.30456915  0.70653783    -0.00730
C1789       C  0.57039660  0.28004419  0.69196322    -0.12450
C1790       C  0.54551176  0.26506544  0.70672902     0.01480
H1791       H  0.54260695  0.30898696  0.77226649     0.14460
H1792       H  0.57901647  0.27072542  0.67021785     0.14460
C1793       C  0.53157737  0.23849677  0.69181297     0.36110
C1794       C  0.58829686  0.34250741  0.75066941     0.36020
N1795       N  0.52046127  0.21720736  0.67974948    -0.44230
N1796       N  0.59938800  0.36324335  0.76369783    -0.44230
C1797       C  0.53557574  0.23220470  0.77702686    -0.00640
C1798       C  0.54575181  0.20432932  0.76357138    -0.12510
C1799       C  0.57124653  0.18807463  0.77585806     0.01600
C1800       C  0.58702463  0.19986950  0.80225975    -0.00730
C1801       C  0.57338895  0.22485748  0.81839357    -0.12450
C1802       C  0.54822751  0.24127646  0.80582714     0.01480
H1803       H  0.53546434  0.19662138  0.74191096     0.14460
H1804       H  0.58448287  0.23375505  0.83922548     0.14460
C1805       C  0.53788376  0.26891675  0.82160168     0.36110
C1806       C  0.58244269  0.16143298  0.75889345     0.36020
N1807       N  0.53014139  0.29112832  0.83455900    -0.44230
N1808       N  0.59135878  0.14010269  0.74520633    -0.44230
C1809       C  0.41577515  0.79662517  0.19786103    -0.00640
C1810       C  0.43035067  0.81178059  0.22294193    -0.12510
C1811       C  0.45460183  0.79768387  0.23940466     0.01600
C1812       C  0.46580245  0.76846307  0.22991793    -0.00730
C1813       C  0.45482108  0.75580165  0.20192142    -0.12450
C1814       C  0.42989553  0.76946204  0.18588327     0.01480
H1815       H  0.42044429  0.83307966  0.23199602     0.14460
H1816       H  0.46402005  0.73381795  0.19392335     0.14460
C1817       C  0.41742113  0.75314010  0.15935417     0.36110
C1818       C  0.46530793  0.81262974  0.26740714     0.36020
N1819       N  0.40749587  0.73987711  0.13815611    -0.44230
N1820       N  0.47297964  0.82524519  0.28988505    -0.44230
C1821       C  0.46665257  0.72846732  0.27290753    -0.00640
C1822       C  0.45590790  0.74180123  0.30060618    -0.12510
C1823       C  0.43121404  0.72849001  0.31705733     0.01600
C1824       C  0.41720493  0.70098473  0.30580824    -0.00730
C1825       C  0.43200656  0.68496615  0.28139766    -0.12450
C1826       C  0.45598446  0.69879556  0.26444719     0.01480
H1827       H  0.46512702  0.76393251  0.30808992     0.14460
H1828       H  0.42225581  0.66332776  0.27297814     0.14460
C1829       C  0.46686814  0.68340694  0.23676118     0.36110
C1830       C  0.41871087  0.74560230  0.34300482     0.36020
N1831       N  0.47510543  0.67079061  0.21451542    -0.44230
N1832       N  0.40884418  0.75963445  0.36368317    -0.44230
C1833       C  0.53452093  0.72357443  0.26695596    -0.00640
C1834       C  0.53929327  0.72868881  0.29882717    -0.12510
C1835       C  0.56430585  0.71465726  0.31436608     0.01600
C1836       C  0.58443258  0.69451437  0.29806245    -0.00730
C1837       C  0.57630617  0.68552654  0.26776314    -0.12450
C1838       C  0.55200988  0.70026290  0.25196362     0.01480
H1839       H  0.52521561  0.74564459  0.31091373     0.14460
H1840       H  0.59124388  0.66978815  0.25498514     0.14460
C1841       C  0.54714497  0.69248398  0.21971635     0.36110
C1842       C  0.57024924  0.72305506  0.34629708     0.36020
N1843       N  0.54365482  0.68586896  0.19388153    -0.44230
N1844       N  0.57502891  0.72977903  0.37189480    -0.44230
C1845       C  0.53379679  0.76967889  0.23067448    -0.00640
C1846       C  0.54060443  0.76435496  0.19923722    -0.12510
C1847       C  0.56548816  0.77980820  0.18488124     0.01600
C1848       C  0.58299307  0.80177062  0.20200173    -0.00730
C1849       C  0.57157499  0.81132836  0.23109672    -0.12450
C1850       C  0.54830626  0.79463586  0.24605412     0.01480
H1851       H  0.52830172  0.74631045  0.18675317     0.14460
H1852       H  0.58367798  0.82915992  0.24418380     0.14460
C1853       C  0.54251992  0.80153461  0.27834901     0.36110
C1854       C  0.57398062  0.77078750  0.15375283     0.36020
N1855       N  0.53867653  0.80726556  0.30432850    -0.44230
N1856       N  0.58077150  0.76353960  0.12877989    -0.44230
C1857       C  0.46632644  0.27052974  0.27189197    -0.00640
C1858       C  0.45226089  0.29502489  0.25570157    -0.12510
C1859       C  0.42679773  0.31098389  0.26816822     0.01600
C1860       C  0.41519461  0.30257113  0.29773847    -0.00730
C1861       C  0.43249894  0.28156087  0.31574038    -0.12450
C1862       C  0.45779701  0.26545915  0.30308722     0.01480
H1863       H  0.45952820  0.30004221  0.23217461     0.14460
H1864       H  0.42435410  0.27540404  0.33873484     0.14460
C1865       C  0.47271624  0.24234950  0.32207644     0.36110
C1866       C  0.41094649  0.33286819  0.24831653     0.36020
N1867       N  0.48413261  0.22425086  0.33829090    -0.44230
N1868       N  0.39829765  0.35024205  0.23218662    -0.44230
C1869       C  0.46622489  0.22730031  0.23190300    -0.00640
C1870       C  0.45614192  0.23927897  0.20328951    -0.12510
C1871       C  0.43192661  0.22496647  0.18667931     0.01600
C1872       C  0.41740150  0.19823215  0.19897530    -0.00730
C1873       C  0.43153157  0.18351150  0.22454239    -0.12450
C1874       C  0.45526798  0.19804983  0.24134501     0.01480
H1875       H  0.46567111  0.26094055  0.19495317     0.14460
H1876       H  0.42158963  0.16231059  0.23369035     0.14460
C1877       C  0.46598911  0.18356631  0.26958100     0.36110
C1878       C  0.42083136  0.23980884  0.15875658     0.36020
N1879       N  0.47438495  0.17142629  0.29202766    -0.44230
N1880       N  0.41202707  0.25168501  0.13631434    -0.44230
C1881       C  0.53348009  0.22575353  0.23290236    -0.00640
C1882       C  0.54207710  0.19508805  0.23954113    -0.12510
C1883       C  0.56676141  0.18094121  0.22363101     0.01600
C1884       C  0.58289045  0.19775896  0.20056384    -0.00730
C1885       C  0.56969109  0.22571585  0.18989297    -0.12450
C1886       C  0.54566077  0.24006964  0.20624031     0.01480
H1887       H  0.53117569  0.18302745  0.25858100     0.14460
H1888       H  0.58052740  0.23835196  0.17104849     0.14460
C1889       C  0.53577183  0.27063024  0.19674112     0.36110
C1890       C  0.57636040  0.15031261  0.23308133     0.36020
N1891       N  0.52792195  0.29511272  0.18904016    -0.44230
N1892       N  0.58395431  0.12569152  0.24058811    -0.44230
C1893       C  0.53487336  0.26375006  0.27765859    -0.00640
C1894       C  0.53921526  0.29536746  0.27105791    -0.12510
C1895       C  0.56413819  0.31186679  0.28424894     0.01600
C1896       C  0.58467861  0.29684281  0.30497227    -0.00730
C1897       C  0.57737030  0.26675332  0.31495613    -0.12450
C1898       C  0.55330159  0.24994297  0.30103700     0.01480
H1899       H  0.52475777  0.30647034  0.25370934     0.14460
H1900       H  0.59271917  0.25488267  0.33103406     0.14460
C1901       C  0.54970940  0.21787925  0.30982020     0.36110
C1902       C  0.56928384  0.34354629  0.27483512     0.36020
N1903       N  0.54732338  0.19224489  0.31735375    -0.44230
N1904       N  0.57342327  0.36897941  0.26739752    -0.44230
loop_ 
_geom_bond_atom_site_label_1 
_geom_bond_atom_site_label_2 
_geom_bond_distance 
_geom_bond_site_symmetry_2 
_ccdc_geom_bond_type 
C1            C2   1.354       .  D
C1         C1881   1.490       .  S
C1         C1893   1.495       .  S
C2         C1857   1.494       .  S
C2         C1869   1.494       .  S
C3            C4   1.352       .  D
C3         C1833   1.494       .  S
C3         C1845   1.489       .  S
C4         C1812   1.493       .  S
C4         C1821   1.489       .  S
C5            C6   1.358       .  D
C5         C1785   1.495       .  S
C5         C1797   1.494       .  S
C6         C1761   1.498       .  S
C6         C1776   1.496       .  S
C7            C8   1.354       .  D
C7         C1737   1.493       .  S
C7         C1749   1.494       .  S
C8         C1713   1.492       .  S
C8         C1728   1.493       .  S
C9           C10   1.355   1_565  D
C9         C1692   1.495       .  S
C9         C1701   1.495       .  S
C10        C1665   1.495       .  S
C10        C1680   1.494       .  S
O11          C26   1.265       .  A
O11         Al19   1.913       .  S
C12          O22   1.258       .  A
C12          O13   1.256       .  A
C12          C71   1.453       .  S
O13         Al15   1.893       .  S
O14          C16   1.258       .  A
O14         Al15   1.893       .  S
Al15         O23   1.911       .  S
Al15         O25   1.888       .  S
Al15         O24   1.795       .  S
C16          O29   1.256       .  A
C16          C34   1.458       .  S
O17          C27   1.258       .  A
O17         Al19   1.889       .  S
O18          C31   1.265       .  A
O18         Al28   1.912       .  S
Al19         O32   1.890       .  S
Al19         O29   1.895       .  S
Al19         O24   1.795       .  S
O20          C27   1.256       .  A
O20         Al28   1.898       .  S
O21          C30   1.259       .  A
O21         Al28   1.896       .  S
O22         Al28   1.887       .  S
O23          C30   1.265       .  A
O24         Al28   1.800       .  S
O25          C26   1.259       .  A
C26        C1653   1.488       .  S
C27          C82   1.457       .  S
C30        C1764   1.490       .  S
C31          O32   1.260       .  A
C31        C1677   1.484       .  S
O33          C48   1.265       .  A
O33         Al41   1.908       .  S
C34          O44   1.257       .  A
C34          O35   1.258       .  A
O35         Al37   1.905       .  S
O36          C38   1.257       .  A
O36         Al37   1.885       .  S
Al37         O45   1.914       .  S
Al37         O47   1.906       .  S
Al37         O46   1.796       .  S
C38          O51   1.257       .  A
C38          C60   1.454       .  S
O39          C49   1.256       .  A
O39         Al41   1.880       .  S
O40          C53   1.265       .  A
O40         Al50   1.911       .  S
Al41         O54   1.904       .  S
Al41         O51   1.900       .  S
Al41         O46   1.791       .  S
O42          C49   1.255       .  A
O42         Al50   1.894       .  S
O43          C52   1.259       .  A
O43         Al50   1.887       .  S
O44         Al50   1.885       .  S
O45          C52   1.266       .  A
O46         Al50   1.793       .  S
O47          C48   1.263       .  A
C48        C1629   1.493       .  S
C49          C93   1.449       .  S
C52        C1617   1.486       .  S
C53          O54   1.262       .  A
C53        C1641   1.494       .  S
O55          C70   1.264       .  A
O55         Al63   1.912       .  S
C56          O66   1.257       .  A
C56          O57   1.257       .  A
C56          C78   1.456       .  S
O57         Al59   1.902       .  S
O58          C60   1.257       .  A
O58         Al59   1.883       .  S
Al59         O67   1.906       .  S
Al59         O69   1.893       .  S
Al59         O68   1.792       .  S
C60          O73   1.257       .  A
O61          C71   1.257       .  A
O61         Al63   1.881       .  S
O62          C75   1.264       .  A
O62         Al72   1.909       .  S
Al63         O76   1.896       .  S
Al63         O73   1.901       .  S
Al63         O68   1.795       .  S
O64          C71   1.256       .  A
O64         Al72   1.898       .  S
O65          C74   1.261       .  A
O65         Al72   1.897       .  S
O66         Al72   1.886       .  S
O67          C74   1.263       .  A
O68         Al72   1.796       .  S
O69          C70   1.261       .  A
C70        C1605   1.490       .  S
C74        C1752   1.486       .  S
C75          O76   1.261       .  A
C75        C1773   1.486       .  S
O77          C92   1.263       .  A
O77         Al85   1.900       .  S
C78          O88   1.257       .  A
C78          O79   1.258       .  A
O79         Al81   1.903       .  S
O80          C82   1.259       .  A
O80         Al81   1.895       .  S
Al81         O89   1.920       .  S
Al81         O91   1.908       .  S
Al81         O90   1.797       .  S
C82          O95   1.255       .  A
O83          C93   1.258       .  A
O83         Al85   1.886       .  S
O84          C97   1.264       .  A
O84         Al94   1.912       .  S
Al85         O98   1.880       .  S
Al85         O95   1.894       .  S
Al85         O90   1.791       .  S
O86          C93   1.255       .  A
O86         Al94   1.888       .  S
O87          C96   1.257       .  A
O87         Al94   1.878       .  S
O88         Al94   1.884       .  S
O89          C96   1.267       .  A
O90         Al94   1.795       .  S
O91          C92   1.262       .  A
C92        C1668   1.484       .  S
C96        C1740   1.488       .  S
C97          O98   1.258       .  A
C97        C1593   1.483       .  S
C99         C100   1.367   1_455  D
C99        C1596   1.498       .  S
C99        C1644   1.495       .  S
C100       C1569   1.531       .  S
C100       C1584   1.513       .  S
C101        C102   1.360       .  D
C101       C1608   1.496       .  S
C101       C1632   1.496       .  S
C102       C1545   1.497       .  S
C102       C1557   1.497       .  S
C103        C104   1.358       .  D
C103       C1521   1.494       .  S
C103       C1533   1.495       .  S
C104       C1497   1.494       .  S
C104       C1509   1.496       .  S
C105        C106   1.355   1_556  D
C105       C1476   1.494       .  S
C105       C1488   1.486       .  S
C106       C1452   1.490       .  S
C106       C1461   1.497       .  S
O107        C122   1.264       .  A
O107       Al115   1.906       .  S
C108        O118   1.256       .  A
C108        O109   1.258       .  A
C108        C134   1.452       .  S
O109       Al111   1.883       .  S
O110        C112   1.255       .  A
O110       Al111   1.896       .  S
Al111       O119   1.896       .  S
Al111       O121   1.905       .  S
Al111       O120   1.788       .  S
C112        O125   1.259       .  A
C112        C174   1.456       .  S
O113        C123   1.261       .  A
O113       Al115   1.917       .  S
O114        C127   1.261       .  A
O114       Al124   1.880       .  S
Al115       O128   1.916       .  S
Al115       O125   1.894       .  S
Al115       O120   1.797       .  S
O116        C123   1.255       .  A
O116       Al124   1.870       .  S
O117        C126   1.263       .  A
O117       Al124   1.907       .  S
O118       Al124   1.899       .  S
O119        C126   1.261       .  A
O120       Al124   1.790       .  S
O121        C122   1.265       .  A
C122       C1464   1.485       .  S
C123        C156   1.456       .  S
C126       C1437   1.487       .  S
C127        O128   1.264       .  A
C127       C1512   1.494       .  S
O129        C144   1.266       .  A
O129       Al137   1.917       .  S
C130        O140   1.254       .  A
C130        O131   1.259       .  A
C130        C178   1.451       .  S
O131       Al133   1.892       .  S
O132        C134   1.252       .  A
O132       Al133   1.880       .  S
Al133       O141   1.884       .  S
Al133       O143   1.903       .  S
Al133       O142   1.787       .  S
C134        O147   1.260       .  A
O135        C145   1.260       .  A
O135       Al137   1.910       .  S
O136        C149   1.258       .  A
O136       Al146   1.870       .  S
Al137       O150   1.929       .  S
Al137       O147   1.900       .  S
Al137       O142   1.799       .  S
O138        C145   1.258       .  A
O138       Al146   1.887       .  S
O139        C148   1.266       .  A
O139       Al146   1.917       .  S
O140       Al146   1.889       .  S
O141        C148   1.258       .  A
O142       Al146   1.789       .  S
O143        C144   1.265       .  A
C144       C1401   1.494       .  S
C145        C152   1.460       .  S
C148       C1428   1.488       .  S
C149        O150   1.268       .  A
C149       C1416   1.498       .  S
O151        C166   1.264       .  A
O151       Al159   1.900       .  S
C152        O162   1.257       .  A
C152        O153   1.264       .  A
O153       Al155   1.926       .  S
O154        C156   1.257       .  A
O154       Al155   1.873       .  S
Al155       O163   1.899       .  S
Al155       O165   1.924       .  S
Al155       O164   1.780       .  S
C156        O169   1.262       .  A
O157        C167   1.257       .  A
O157       Al159   1.881       .  S
O158        C171   1.263       .  A
O158       Al168   1.896       .  S
Al159       O172   1.923       .  S
Al159       O169   1.923       .  S
Al159       O164   1.783       .  S
O160        C167   1.265       .  A
O160       Al168   1.929       .  S
O161        C170   1.267       .  A
O161       Al168   1.921       .  S
O162       Al168   1.880       .  S
O163        C170   1.263       .  A
O164       Al168   1.778       .  S
O165        C166   1.267       .  A
C166       C1500   1.487       .  S
C167        C189   1.462       .  S
C170       C1389   1.486       .  S
C171        O172   1.265       .  A
C171       C1896   1.484       .  S
O173        C188   1.262       .  A
O173       Al181   1.900       .  S
C174        O184   1.257       .  A
C174        O175   1.259       .  A
O175       Al177   1.891       .  S
O176        C178   1.255       .  A
O176       Al177   1.890       .  S
Al177       O185   1.898       .  S
Al177       O187   1.912       .  S
Al177       O186   1.790       .  S
C178        O191   1.261       .  A
O179        C189   1.260       .  A
O179       Al181   1.916       .  S
O180        C193   1.261       .  A
O180       Al190   1.886       .  S
Al181       O194   1.911       .  S
Al181       O191   1.894       .  S
Al181       O186   1.790       .  S
O182        C189   1.257       .  A
O182       Al190   1.885       .  S
O183        C192   1.262       .  A
O183       Al190   1.901       .  S
O184       Al190   1.898       .  S
O185        C192   1.260       .  A
O186       Al190   1.786       .  S
O187        C188   1.266       .  A
C188       C1377   1.489       .  S
C192       C1449   1.482       .  S
C193        O194   1.264       .  A
C193       C1884   1.489       .  S
C195        C196   1.355   1_545  D
C195       C1380   1.496       .  S
C195       C1425   1.490       .  S
C196       C1353   1.499       .  S
C196       C1365   1.490       .  S
C197        C198   1.360       .  D
C197       C1392   1.498       .  S
C197       C1413   1.499       .  S
C198       C1332   1.499       .  S
C198       C1341   1.494       .  S
C199        C200   1.355   1_556  D
C199       C1308   1.493       .  S
C199       C1320   1.493       .  S
C200       C1284   1.494       .  S
C200       C1293   1.492       .  S
O201        C216   1.267       .  A
O201       Al209   1.916       .  S
C202        O212   1.256       .  A
C202        O203   1.256       .  A
C202        C272   1.449       .  S
O203       Al205   1.896       .  S
O204        C206   1.254       .  A
O204       Al205   1.870       .  S
Al205       O213   1.900       .  S
Al205       O215   1.888       .  S
Al205       O214   1.789       .  S
C206        O219   1.261       .  A
C206        C246   1.457       .  S
O207        C217   1.262       .  A
O207       Al209   1.896       .  S
O208        C221   1.265       .  A
O208       Al218   1.907       .  S
Al209       O222   1.911       .  S
Al209       O219   1.922       .  S
Al209       O214   1.790       .  S
O210        C217   1.256       .  A
O210       Al218   1.899       .  S
O211        C220   1.262       .  A
O211       Al218   1.898       .  S
O212       Al218   1.880       .  S
O213        C220   1.261       .  A
O214       Al218   1.789       .  S
O215        C216   1.260       .  A
C216       C1296   1.489       .  S
C217        C239   1.456       .  S
C220       C1524   1.484       .  S
C221        O222   1.264       .  A
C221       C1269   1.491       .  S
O223        C238   1.267       .  A
O223       Al231   1.916       .  S
C224        O234   1.258       .  A
C224        O225   1.259       .  A
C224        C261   1.458       .  S
O225       Al227   1.902       .  S
O226        C228   1.260       .  A
O226       Al227   1.905       .  S
Al227       O235   1.925       .  S
Al227       O237   1.896       .  S
Al227       O236   1.796       .  S
C228        O241   1.253       .  A
C228        C283   1.457       .  S
O229        C239   1.259       .  A
O229       Al231   1.899       .  S
O230        C243   1.265       .  A
O230       Al240   1.912       .  S
Al231       O244   1.890       .  S
Al231       O241   1.882       .  S
Al231       O236   1.794       .  S
O232        C239   1.254       .  A
O232       Al240   1.890       .  S
O233        C242   1.259       .  A
O233       Al240   1.881       .  S
O234       Al240   1.888       .  S
O235        C242   1.266       .  A
O236       Al240   1.794       .  S
O237        C238   1.263       .  A
C238       C1260   1.498       .  S
C242       C1356   1.499       .  S
C243        O244   1.260       .  A
C243       C1245   1.489       .  S
O245        C260   1.264       .  A
O245       Al253   1.892       .  S
C246        O256   1.264       .  A
C246        O247   1.258       .  A
O247       Al249   1.874       .  S
O248        C250   1.263       .  A
O248       Al249   1.927       .  S
Al249       O257   1.916       .  S
Al249       O259   1.912       .  S
Al249       O258   1.783       .  S
C250        O263   1.258       .  A
C250        C268   1.458       .  S
O251        C261   1.261       .  A
O251       Al253   1.918       .  S
O252        C265   1.268       .  A
O252       Al262   1.932       .  S
Al253       O266   1.884       .  S
Al253       O263   1.877       .  S
Al253       O258   1.772       .  S
O254        C261   1.255       .  A
O254       Al262   1.881       .  S
O255        C264   1.262       .  A
O255       Al262   1.900       .  S
O256       Al262   1.924       .  S
O257        C264   1.266       .  A
O258       Al262   1.783       .  S
O259        C260   1.265       .  A
C260       C1848   1.490       .  S
C264       C1281   1.491       .  S
C265        O266   1.258       .  A
C265       C1368   1.481       .  S
O267        C282   1.265       .  A
O267       Al275   1.907       .  S
C268        O278   1.255       .  A
C268        O269   1.263       .  A
O269       Al271   1.927       .  S
O270        C272   1.258       .  A
O270       Al271   1.883       .  S
Al271       O279   1.900       .  S
Al271       O281   1.911       .  S
Al271       O280   1.787       .  S
C272        O285   1.257       .  A
O273        C283   1.258       .  A
O273       Al275   1.882       .  S
O274        C287   1.263       .  A
O274       Al284   1.902       .  S
Al275       O288   1.901       .  S
Al275       O285   1.898       .  S
Al275       O280   1.784       .  S
O276        C283   1.258       .  A
O276       Al284   1.911       .  S
O277        C286   1.262       .  A
O277       Al284   1.906       .  S
O278       Al284   1.870       .  S
O279        C286   1.263       .  A
O280       Al284   1.789       .  S
O281        C282   1.264       .  A
C282       C1536   1.490       .  S
C286       C1836   1.482       .  S
C287        O288   1.263       .  A
C287       C1236   1.485       .  S
C289        C290   1.358       .  D
C289       C1233   1.489       .  S
C289       C1257   1.500       .  S
C290       C1209   1.500       .  S
C290       C1221   1.492       .  S
C291        C292   1.355   1_565  D
C291       C1188   1.497       .  S
C291       C1197   1.489       .  S
C292       C1161   1.499       .  S
C292       C1176   1.488       .  S
O293        C308   1.266       .  A
O293       Al301   1.912       .  S
C294        O304   1.258       .  A
C294        O295   1.260       .  A
C294        C331   1.459       .  S
O295       Al297   1.905       .  S
O296        C298   1.262       .  A
O296       Al297   1.906       .  S
Al297       O305   1.911       .  S
Al297       O307   1.904       .  S
Al297       O306   1.783       .  S
C298        O311   1.253       .  A
C298        C364   1.452       .  S
O299        C309   1.259       .  A
O299       Al301   1.894       .  S
O300        C313   1.263       .  A
O300       Al310   1.911       .  S
Al301       O314   1.882       .  S
Al301       O311   1.884       .  S
Al301       O306   1.786       .  S
O302        C309   1.261       .  A
O302       Al310   1.911       .  S
O303        C312   1.263       .  A
O303       Al310   1.905       .  S
O304       Al310   1.893       .  S
O305        C312   1.266       .  A
O306       Al310   1.792       .  S
O307        C308   1.264       .  A
C308       C1800   1.494       .  S
C309        C338   1.463       .  S
C312       C1473   1.496       .  S
C313        O314   1.260       .  A
C313       C1173   1.489       .  S
O315        C330   1.253       .  A
O315       Al323   1.866       .  S
C316        O326   1.256       .  A
C316        O317   1.263       .  A
C316        C353   1.464       .  S
O317       Al319   1.913       .  S
O318        C320   1.256       .  A
O318       Al319   1.895       .  S
Al319       O327   1.896       .  S
Al319       O329   1.928       .  S
Al319       O328   1.791       .  S
C320        O333   1.262       .  A
C320        C375   1.456       .  S
O321        C331   1.257       .  A
O321       Al323   1.901       .  S
O322        C335   1.265       .  A
O322       Al332   1.924       .  S
Al323       O336   1.889       .  S
Al323       O333   1.898       .  S
Al323       O328   1.777       .  S
O324        C331   1.256       .  A
O324       Al332   1.895       .  S
O325        C334   1.267       .  A
O325       Al332   1.924       .  S
O326       Al332   1.891       .  S
O327        C334   1.264       .  A
O328       Al332   1.800       .  S
O329        C330   1.268       .  A
C330       C1149   1.497       .  S
C334       C1572   1.484       .  S
C335        O336   1.258       .  A
C335       C1485   1.488       .  S
O337        C352   1.260       .  A
O337       Al345   1.896       .  S
C338        O348   1.262       .  A
C338        O339   1.258       .  A
O339       Al341   1.889       .  S
O340        C342   1.263       .  A
O340       Al341   1.920       .  S
Al341       O349   1.919       .  S
Al341       O351   1.908       .  S
Al341       O350   1.791       .  S
C342        O355   1.258       .  A
C342        C360   1.460       .  S
O343        C353   1.256       .  A
O343       Al345   1.902       .  S
O344        C357   1.266       .  A
O344       Al354   1.910       .  S
Al345       O358   1.915       .  S
Al345       O355   1.883       .  S
Al345       O350   1.792       .  S
O346        C353   1.261       .  A
O346       Al354   1.905       .  S
O347        C356   1.263       .  A
O347       Al354   1.902       .  S
O348       Al354   1.918       .  S
O349        C356   1.263       .  A
O350       Al354   1.776       .  S
O351        C352   1.264       .  A
C352       C1344   1.489       .  S
C356       C1164   1.490       .  S
C357        O358   1.266       .  A
C357       C1581   1.491       .  S
O359        C374   1.265       .  A
O359       Al367   1.906       .  S
C360        O370   1.257       .  A
C360        O361   1.261       .  A
O361       Al363   1.923       .  S
O362        C364   1.262       .  A
O362       Al363   1.891       .  S
Al363       O371   1.905       .  S
Al363       O373   1.916       .  S
Al363       O372   1.777       .  S
C364        O377   1.258       .  A
O365        C375   1.252       .  A
O365       Al367   1.871       .  S
O366        C379   1.261       .  A
O366       Al376   1.899       .  S
Al367       O380   1.919       .  S
Al367       O377   1.905       .  S
Al367       O372   1.787       .  S
O368        C375   1.265       .  A
O368       Al376   1.922       .  S
O369        C378   1.266       .  A
O369       Al376   1.925       .  S
O370       Al376   1.883       .  S
O371        C378   1.267       .  A
O372       Al376   1.782       .  S
O373        C374   1.265       .  A
C374       C1788   1.493       .  S
C378       C1329   1.493       .  S
C379        O380   1.265       .  A
C379       C1137   1.490       .  S
C381        C382   1.355       .  D
C381       C1140   1.495       .  S
C381       C1152   1.498       .  S
C382       C1116   1.490       .  S
C382       C1125   1.490       .  S
O383        C398   1.267       .  A
O383       Al391   1.909       .  S
C384        O394   1.256       .  A
C384        O385   1.262       .  A
C384        C406   1.457       .  S
O385       Al387   1.917       .  S
O386        C388   1.257       .  A
O386       Al387   1.879       .  S
Al387       O395   1.903       .  S
Al387       O397   1.905       .  S
Al387       O396   1.783       .  S
C388        O401   1.261       .  A
C388        C443   1.459       .  S
O389        C399   1.261       .  A
O389       Al391   1.895       .  S
O390        C403   1.264       .  A
O390       Al400   1.902       .  S
Al391       O404   1.918       .  S
Al391       O401   1.920       .  S
Al391       O396   1.786       .  S
O392        C399   1.258       .  A
O392       Al400   1.903       .  S
O393        C402   1.263       .  A
O393       Al400   1.907       .  S
O394       Al400   1.880       .  S
O395        C402   1.262       .  A
O396       Al400   1.783       .  S
O397        C398   1.263       .  A
C398       C1305   1.489       .  S
C399        C454   1.455       .  S
C402       C1101   1.486       .  S
C403        O404   1.265       .  A
C403       C1128   1.489       .  S
O405        C420   1.262       .  A
O405       Al413   1.890       .  S
C406        O416   1.259       .  A
C406        O407   1.257       .  A
O407       Al409   1.884       .  S
O408        C410   1.261       .  A
O408       Al409   1.911       .  S
Al409       O417   1.895       .  S
Al409       O419   1.908       .  S
Al409       O418   1.785       .  S
C410        O423   1.256       .  A
C410        C450   1.456       .  S
O411        C421   1.255       .  A
O411       Al413   1.894       .  S
O412        C425   1.265       .  A
O412       Al422   1.906       .  S
Al413       O426   1.903       .  S
Al413       O423   1.882       .  S
Al413       O418   1.784       .  S
O414        C421   1.260       .  A
O414       Al422   1.895       .  S
O415        C424   1.265       .  A
O415       Al422   1.911       .  S
O416       Al422   1.910       .  S
O417        C424   1.264       .  A
O418       Al422   1.787       .  S
O419        C420   1.262       .  A
C420       C1224   1.489       .  S
C421        C428   1.452       .  S
C424       C1089   1.493       .  S
C425        O426   1.264       .  A
C425       C1200   1.488       .  S
O427        C442   1.266       .  A
O427       Al435   1.911       .  S
C428        O438   1.256       .  A
C428        O429   1.261       .  A
O429       Al431   1.895       .  S
O430        C432   1.260       .  A
O430       Al431   1.916       .  S
Al431       O439   1.908       .  S
Al431       O441   1.909       .  S
Al431       O440   1.785       .  S
C432        O445   1.257       .  A
C432        C465   1.461       .  S
O433        C443   1.262       .  A
O433       Al435   1.920       .  S
O434        C447   1.262       .  A
O434       Al444   1.901       .  S
Al435       O448   1.905       .  S
Al435       O445   1.885       .  S
Al435       O440   1.786       .  S
O436        C443   1.256       .  A
O436       Al444   1.877       .  S
O437        C446   1.265       .  A
O437       Al444   1.907       .  S
O438       Al444   1.896       .  S
O439        C446   1.265       .  A
O440       Al444   1.788       .  S
O441        C442   1.265       .  A
C442       C1080   1.498       .  S
C446       C1185   1.492       .  S
C447        O448   1.263       .  A
C447       C1317   1.491       .  S
O449        C464   1.266       .  A
O449       Al457   1.907       .  S
C450        O460   1.257       .  A
C450        O451   1.261       .  A
O451       Al453   1.912       .  S
O452        C454   1.260       .  A
O452       Al453   1.894       .  S
Al453       O461   1.907       .  S
Al453       O463   1.903       .  S
Al453       O462   1.782       .  S
C454        O467   1.258       .  A
O455        C465   1.257       .  A
O455       Al457   1.881       .  S
O456        C469   1.262       .  A
O456       Al466   1.898       .  S
Al457       O470   1.913       .  S
Al457       O467   1.903       .  S
Al457       O462   1.788       .  S
O458        C465   1.263       .  A
O458       Al466   1.922       .  S
O459        C468   1.264       .  A
O459       Al466   1.913       .  S
O460       Al466   1.883       .  S
O461        C468   1.264       .  A
O462       Al466   1.782       .  S
O463        C464   1.264       .  A
C464       C1113   1.486       .  S
C468       C1212   1.491       .  S
C469        O470   1.263       .  A
C469       C1065   1.484       .  S
C471        C472   1.357       .  D
C471       C1068   1.492       .  S
C471       C1077   1.497       .  S
C472       C1041   1.495       .  S
C472       C1053   1.495       .  S
O473        C488   1.265       .  A
O473       Al481   1.904       .  S
C474        O484   1.254       .  A
C474        O475   1.262       .  A
C474        C544   1.456       .  S
O475       Al477   1.917       .  S
O476        C478   1.260       .  A
O476       Al477   1.895       .  S
Al477       O485   1.905       .  S
Al477       O487   1.911       .  S
Al477       O486   1.784       .  S
C478        O491   1.257       .  A
C478        C522   1.457       .  S
O479        C489   1.258       .  A
O479       Al481   1.882       .  S
O480        C493   1.263       .  A
O480       Al490   1.906       .  S
Al481       O494   1.899       .  S
Al481       O491   1.904       .  S
Al481       O486   1.786       .  S
O482        C489   1.260       .  A
O482       Al490   1.907       .  S
O483        C492   1.263       .  A
O483       Al490   1.912       .  S
O484       Al490   1.875       .  S
O485        C492   1.263       .  A
O486       Al490   1.788       .  S
O487        C488   1.265       .  A
C488       C1017   1.488       .  S
C489        C500   1.452       .  S
C492       C1560   1.489       .  S
C493        O494   1.261       .  A
C493       C1029   1.487       .  S
O495        C510   1.267       .  A
O495       Al503   1.914       .  S
C496        O506   1.254       .  A
C496        O497   1.262       .  A
C496        C555   1.459       .  S
O497       Al499   1.917       .  S
O498        C500   1.259       .  A
O498       Al499   1.888       .  S
Al499       O507   1.898       .  S
Al499       O509   1.897       .  S
Al499       O508   1.784       .  S
C500        O513   1.257       .  A
O501        C511   1.258       .  A
O501       Al503   1.883       .  S
O502        C515   1.264       .  A
O502       Al512   1.907       .  S
Al503       O516   1.903       .  S
Al503       O513   1.901       .  S
Al503       O508   1.790       .  S
O504        C511   1.258       .  A
O504       Al512   1.901       .  S
O505        C514   1.264       .  A
O505       Al512   1.911       .  S
O506       Al512   1.879       .  S
O507        C514   1.261       .  A
O508       Al512   1.790       .  S
O509        C510   1.264       .  A
C510       C1005   1.491       .  S
C511        C518   1.451       .  S
C514        C993   1.487       .  S
C515        O516   1.262       .  A
C515       C1689   1.487       .  S
O517        C532   1.265       .  A
O517       Al525   1.914       .  S
C518        O528   1.260       .  A
C518        O519   1.256       .  A
O519       Al521   1.895       .  S
O520        C522   1.260       .  A
O520       Al521   1.890       .  S
Al521       O529   1.917       .  S
Al521       O531   1.893       .  S
Al521       O530   1.788       .  S
C522        O535   1.259       .  A
O523        C533   1.255       .  A
O523       Al525   1.881       .  S
O524        C537   1.262       .  A
O524       Al534   1.895       .  S
Al525       O538   1.920       .  S
Al525       O535   1.905       .  S
Al525       O530   1.793       .  S
O526        C533   1.262       .  A
O526       Al534   1.920       .  S
O527        C536   1.262       .  A
O527       Al534   1.900       .  S
O528       Al534   1.891       .  S
O529        C536   1.268       .  A
O530       Al534   1.786       .  S
O531        C532   1.261       .  A
C532        C981   1.491       .  S
C533        C540   1.461       .  S
C536       C1704   1.490       .  S
C537        O538   1.265       .  A
C537       C1056   1.489       .  S
O539        C554   1.265       .  A
O539       Al547   1.900       .  S
C540        O550   1.260       .  A
C540        O541   1.259       .  A
O541       Al543   1.892       .  S
O542        C544   1.258       .  A
O542       Al543   1.903       .  S
Al543       O551   1.901       .  S
Al543       O553   1.913       .  S
Al543       O552   1.788       .  S
C544        O557   1.258       .  A
O545        C555   1.259       .  A
O545       Al547   1.906       .  S
O546        C559   1.265       .  A
O546       Al556   1.912       .  S
Al547       O560   1.908       .  S
Al547       O557   1.889       .  S
Al547       O552   1.782       .  S
O548        C555   1.260       .  A
O548       Al556   1.894       .  S
O549        C558   1.267       .  A
O549       Al556   1.912       .  S
O550       Al556   1.912       .  S
O551        C558   1.262       .  A
O552       Al556   1.785       .  S
O553        C554   1.265       .  A
C554       C1548   1.497       .  S
C558       C1044   1.493       .  S
C559        O560   1.264       .  A
C559        C969   1.497       .  S
C561        C562   1.357   1_455  D
C561       C1008   1.495       .  S
C561       C1032   1.492       .  S
C562       C1092   1.495       .  S
C562       C1104   1.496       .  S
C563        C564   1.358       .  D
C563        C972   1.498       .  S
C563        C996   1.496       .  S
C564        C945   1.494       .  S
C564        C957   1.497       .  S
C565        C566   1.357   1_455  D
C565        C921   1.494       .  S
C565        C933   1.497       .  S
C566       C1248   1.494       .  S
C566       C1272   1.498       .  S
O567        C582   1.262       .  A
O567       Al575   1.902       .  S
C568        O578   1.258       .  A
C568        O569   1.260       .  A
C568        C649   1.458       .  S
O569       Al571   1.912       .  S
O570        C572   1.254       .  A
O570       Al571   1.872       .  S
Al571       O579   1.901       .  S
Al571       O581   1.912       .  S
Al571       O580   1.787       .  S
C572        O585   1.262       .  A
C572        C605   1.454       .  S
O573        C583   1.259       .  A
O573       Al575   1.887       .  S
O574        C587   1.266       .  A
O574       Al584   1.910       .  S
Al575       O588   1.899       .  S
Al575       O585   1.917       .  S
Al575       O580   1.783       .  S
O576        C583   1.257       .  A
O576       Al584   1.901       .  S
O577        C586   1.262       .  A
O577       Al584   1.904       .  S
O578       Al584   1.885       .  S
O579        C586   1.264       .  A
O580       Al584   1.789       .  S
O581        C582   1.264       .  A
C582        C900   1.492       .  S
C583        C612   1.452       .  S
C586        C912   1.481       .  S
C587        O588   1.264       .  A
C587       C1809   1.490       .  S
O589        C604   1.263       .  A
O589       Al597   1.893       .  S
C590        O600   1.258       .  A
C590        O591   1.258       .  A
C590        C638   1.458       .  S
O591       Al593   1.890       .  S
O592        C594   1.261       .  A
O592       Al593   1.915       .  S
Al593       O601   1.924       .  S
Al593       O603   1.918       .  S
Al593       O602   1.787       .  S
C594        O607   1.260       .  A
C594        C616   1.462       .  S
O595        C605   1.259       .  A
O595       Al597   1.907       .  S
O596        C609   1.262       .  A
O596       Al606   1.905       .  S
Al597       O610   1.910       .  S
Al597       O607   1.891       .  S
Al597       O602   1.782       .  S
O598        C605   1.258       .  A
O598       Al606   1.884       .  S
O599        C608   1.263       .  A
O599       Al606   1.898       .  S
O600       Al606   1.907       .  S
O601        C608   1.268       .  A
O602       Al606   1.784       .  S
O603        C604   1.267       .  A
C604        C960   1.499       .  S
C608        C936   1.493       .  S
C609        O610   1.266       .  A
C609        C885   1.492       .  S
O611        C626   1.265       .  A
O611       Al619   1.908       .  S
C612        O622   1.258       .  A
C612        O613   1.257       .  A
O613       Al615   1.899       .  S
O614        C616   1.256       .  A
O614       Al615   1.883       .  S
Al615       O623   1.912       .  S
Al615       O625   1.901       .  S
Al615       O624   1.793       .  S
C616        O629   1.261       .  A
O617        C627   1.260       .  A
O617       Al619   1.898       .  S
O618        C631   1.265       .  A
O618       Al628   1.907       .  S
Al619       O632   1.908       .  S
Al619       O629   1.917       .  S
Al619       O624   1.789       .  S
O620        C627   1.254       .  A
O620       Al628   1.890       .  S
O621        C630   1.260       .  A
O621       Al628   1.886       .  S
O622       Al628   1.886       .  S
O623        C630   1.264       .  A
O624       Al628   1.789       .  S
O625        C626   1.262       .  A
C626        C948   1.487       .  S
C627        C634   1.453       .  S
C630       C1824   1.488       .  S
C631        O632   1.264       .  A
C631        C873   1.488       .  S
O633        C648   1.263       .  A
O633       Al641   1.907       .  S
C634        O644   1.259       .  A
C634        O635   1.258       .  A
O635       Al637   1.903       .  S
O636        C638   1.255       .  A
O636       Al637   1.877       .  S
Al637       O645   1.906       .  S
Al637       O647   1.902       .  S
Al637       O646   1.792       .  S
C638        O651   1.262       .  A
O639        C649   1.261       .  A
O639       Al641   1.901       .  S
O640        C653   1.266       .  A
O640       Al650   1.909       .  S
Al641       O654   1.907       .  S
Al641       O651   1.917       .  S
Al641       O646   1.787       .  S
O642        C649   1.255       .  A
O642       Al650   1.896       .  S
O643        C652   1.260       .  A
O643       Al650   1.898       .  S
O644       Al650   1.885       .  S
O645        C652   1.264       .  A
O646       Al650   1.787       .  S
O647        C648   1.261       .  A
C648        C924   1.491       .  S
C652        C849   1.485       .  S
C653        O654   1.264       .  A
C653        C864   1.486       .  S
C655        C656   1.356   1_556  D
C655        C984   1.495       .  S
C655       C1020   1.489       .  S
C656        C861   1.497       .  S
C656        C909   1.492       .  S
C657        C658   1.356       .  D
C657        C852   1.493       .  S
C657        C876   1.497       .  S
C658        C825   1.495       .  S
C658        C840   1.491       .  S
C659        C660   1.357   1_556  D
C659       C1620   1.495       .  S
C659       C1656   1.496       .  S
C660        C801   1.494       .  S
C660        C813   1.493       .  S
C661        C662   1.356   1_565  D
C661        C888   1.491       .  S
C661        C897   1.495       .  S
C662        C777   1.496       .  S
C662        C789   1.494       .  S
O663        C678   1.260       .  A
O663       Al671   1.897       .  S
C664        O674   1.261       .  A
C664        O665   1.257       .  A
C664        C712   1.448       .  S
O665       Al667   1.901       .  S
O666        C668   1.256       .  A
O666       Al667   1.879       .  S
Al667       O675   1.908       .  S
Al667       O677   1.910       .  S
Al667       O676   1.788       .  S
C668        O681   1.264       .  A
C668        C701   1.459       .  S
O669        C679   1.256       .  A
O669       Al671   1.883       .  S
O670        C683   1.264       .  A
O670       Al680   1.901       .  S
Al671       O684   1.912       .  S
Al671       O681   1.922       .  S
Al671       O676   1.779       .  S
O672        C679   1.261       .  A
O672       Al680   1.921       .  S
O673        C682   1.265       .  A
O673       Al680   1.909       .  S
O674       Al680   1.887       .  S
O675        C682   1.266       .  A
O676       Al680   1.779       .  S
O677        C678   1.263       .  A
C678       C1716   1.485       .  S
C679        C734   1.461       .  S
C682        C837   1.491       .  S
C683        O684   1.266       .  A
C683       C1860   1.486       .  S
O685        C700   1.260       .  A
O685       Al693   1.878       .  S
C686        O696   1.262       .  A
C686        O687   1.257       .  A
C686        C708   1.465       .  S
O687       Al689   1.893       .  S
O688        C690   1.257       .  A
O688       Al689   1.893       .  S
Al689       O697   1.916       .  S
Al689       O699   1.928       .  S
Al689       O698   1.796       .  S
C690        O703   1.261       .  A
C690        C745   1.448       .  S
O691        C701   1.257       .  A
O691       Al693   1.904       .  S
O692        C705   1.266       .  A
O692       Al702   1.913       .  S
Al693       O706   1.903       .  S
Al693       O703   1.891       .  S
Al693       O698   1.781       .  S
O694        C701   1.258       .  A
O694       Al702   1.893       .  S
O695        C704   1.261       .  A
O695       Al702   1.898       .  S
O696       Al702   1.915       .  S
O697        C704   1.264       .  A
O698       Al702   1.781       .  S
O699        C700   1.269       .  A
C700        C780   1.496       .  S
C704        C768   1.488       .  S
C705        O706   1.264       .  A
C705       C1725   1.493       .  S
O707        C722   1.268       .  A
O707       Al715   1.917       .  S
C708        O718   1.260       .  A
C708        O709   1.258       .  A
O709       Al711   1.903       .  S
O710        C712   1.261       .  A
O710       Al711   1.901       .  S
Al711       O719   1.913       .  S
Al711       O721   1.896       .  S
Al711       O720   1.788       .  S
C712        O725   1.252       .  A
O713        C723   1.259       .  A
O713       Al715   1.895       .  S
O714        C727   1.266       .  A
O714       Al724   1.915       .  S
Al715       O728   1.894       .  S
Al715       O725   1.882       .  S
Al715       O720   1.793       .  S
O716        C723   1.260       .  A
O716       Al724   1.903       .  S
O717        C726   1.264       .  A
O717       Al724   1.898       .  S
O718       Al724   1.904       .  S
O719        C726   1.265       .  A
O720       Al724   1.786       .  S
O721        C722   1.264       .  A
C722        C828   1.495       .  S
C723        C730   1.459       .  S
C726        C756   1.498       .  S
C727        O728   1.259       .  A
C727        C816   1.495       .  S
O729        C744   1.261       .  A
O729       Al737   1.892       .  S
C730        O740   1.259       .  A
C730        O731   1.256       .  A
O731       Al733   1.891       .  S
O732        C734   1.262       .  A
O732       Al733   1.915       .  S
Al733       O741   1.921       .  S
Al733       O743   1.909       .  S
Al733       O742   1.790       .  S
C734        O747   1.258       .  A
O735        C745   1.254       .  A
O735       Al737   1.890       .  S
O736        C749   1.263       .  A
O736       Al746   1.887       .  S
Al737       O750   1.922       .  S
Al737       O747   1.886       .  S
Al737       O742   1.790       .  S
O738        C745   1.260       .  A
O738       Al746   1.894       .  S
O739        C748   1.261       .  A
O739       Al746   1.896       .  S
O740       Al746   1.906       .  S
O741        C748   1.267       .  A
O742       Al746   1.778       .  S
O743        C744   1.264       .  A
C744       C1872   1.490       .  S
C748        C804   1.493       .  S
C749        O750   1.268       .  A
C749        C792   1.495       .  S
C751        C752   1.359   1_655  D
C751       C1404   1.496       .  S
C751       C1440   1.493       .  S
C752        C753   1.498       .  S
C752        C765   1.494       .  S
C753        C754   1.407       .  A
C753        C758   1.411       .  A
C754        C755   1.410       .  A
C754        H759   1.084       .  S
C755        C756   1.418       .  A
C755        C762   1.443       .  S
C756        C757   1.407       .  A
C757        C758   1.397       .  A
C757        H760   1.085       .  S
C758        C761   1.441       .  S
C761        N763   1.157       .  T
C762        N764   1.157       .  T
C765        C766   1.401       .  A
C765        C770   1.411       .  A
C766        C767   1.399       .  A
C766        H771   1.083       .  S
C767        C768   1.417       .  A
C767        C774   1.444       .  S
C768        C769   1.408       .  A
C769        C770   1.405       .  A
C769        H772   1.084       .  S
C770        C773   1.441       .  S
C773        N775   1.157       .  T
C774        N776   1.157       .  T
C777        C778   1.407       .  A
C777        C782   1.407       .  A
C778        C779   1.410       .  A
C778        H783   1.082       .  S
C779        C780   1.414       .  A
C779        C786   1.442       .  S
C780        C781   1.411       .  A
C781        C782   1.395       .  A
C781        H784   1.085       .  S
C782        C785   1.444       .  S
C785        N787   1.157       .  T
C786        N788   1.157       .  T
C789        C790   1.407       .  A
C789        C794   1.409       .  A
C790        C791   1.410       .  A
C790        H795   1.083       .  S
C791        C792   1.415       .  A
C791        C798   1.442       .  S
C792        C793   1.409       .  A
C793        C794   1.394       .  A
C793        H796   1.085       .  S
C794        C797   1.443       .  S
C797        N799   1.158       .  T
C798        N800   1.157       .  T
C801        C802   1.401       .  A
C801        C806   1.412       .  A
C802        C803   1.404       .  A
C802        H807   1.083       .  S
C803        C804   1.421       .  A
C803        C810   1.444       .  S
C804        C805   1.405       .  A
C805        C806   1.400       .  A
C805        H808   1.085       .  S
C806        C809   1.441       .  S
C809        N811   1.157       .  T
C810        N812   1.157       .  T
C813        C814   1.399       .  A
C813        C818   1.412       .  A
C814        C815   1.401       .  A
C814        H819   1.084       .  S
C815        C816   1.422       .  A
C815        C822   1.444       .  S
C816        C817   1.406       .  A
C817        C818   1.404       .  A
C817        H820   1.084       .  S
C818        C821   1.442       .  S
C821        N823   1.157       .  T
C822        N824   1.157       .  T
C825        C826   1.405       .  A
C825        C830   1.408       .  A
C826        C827   1.406       .  A
C826        H831   1.082       .  S
C827        C828   1.415       .  A
C827        C834   1.442       .  S
C828        C829   1.410       .  A
C829        C830   1.400       .  A
C829        H832   1.085       .  S
C830        C833   1.442       .  S
C833        N835   1.157       .  T
C834        N836   1.157       .  T
C837        C838   1.410       .  A
C837        C842   1.415       .  A
C838        C839   1.402       .  A
C838        H843   1.084       .  S
C839        C840   1.408       .  A
C839        C846   1.443       .  S
C840        C841   1.402       .  A
C841        C842   1.401       .  A
C841        H844   1.079       .  S
C842        C845   1.444       .  S
C845        N847   1.157       .  T
C846        N848   1.157       .  T
C849        C850   1.404       .  A
C849        C854   1.416       .  A
C850        C851   1.400       .  A
C850        H855   1.084       .  S
C851        C852   1.411       .  A
C851        C858   1.440       .  S
C852        C853   1.403       .  A
C853        C854   1.402       .  A
C853        H856   1.084       .  S
C854        C857   1.444       .  S
C857        N859   1.157       .  T
C858        N860   1.157       .  T
C861        C862   1.403       .  A
C861        C866   1.411       .  A
C862        C863   1.400       .  A
C862        H867   1.084       .  S
C863        C864   1.415       .  A
C863        C870   1.444       .  S
C864        C865   1.407       .  A
C865        C866   1.405       .  A
C865        H868   1.085       .  S
C866        C869   1.441       .  S
C869        N871   1.157       .  T
C870        N872   1.157       .  T
C873        C874   1.407       .  A
C873        C878   1.416       .  A
C874        C875   1.404       .  A
C874        H879   1.085       .  S
C875        C876   1.411       .  A
C875        C882   1.441       .  S
C876        C877   1.404       .  A
C877        C878   1.402       .  A
C877        H880   1.084       .  S
C878        C881   1.444       .  S
C881        N883   1.157       .  T
C882        N884   1.157       .  T
C885        C886   1.407       .  A
C885        C890   1.419       .  A
C886        C887   1.404       .  A
C886        H891   1.084       .  S
C887        C888   1.410       .  A
C887        C894   1.441       .  S
C888        C889   1.399       .  A
C889        C890   1.399       .  A
C889        H892   1.084       .  S
C890        C893   1.443       .  S
C893        N895   1.157       .  T
C894        N896   1.157       .  T
C897        C898   1.403       .  A
C897        C902   1.411       .  A
C898        C899   1.404       .  A
C898        H903   1.083       .  S
C899        C900   1.418       .  A
C899        C906   1.444       .  S
C900        C901   1.406       .  A
C901        C902   1.401       .  A
C901        H904   1.085       .  S
C902        C905   1.440       .  S
C905        N907   1.157       .  T
C906        N908   1.157       .  T
C909        C910   1.404       .  A
C909        C914   1.412       .  A
C910        C911   1.404       .  A
C910        H915   1.084       .  S
C911        C912   1.414       .  A
C911        C918   1.443       .  S
C912        C913   1.403       .  A
C913        C914   1.397       .  A
C913        H916   1.085       .  S
C914        C917   1.441       .  S
C917        N919   1.157       .  T
C918        N920   1.157       .  T
C921        C922   1.403       .  A
C921        C926   1.409       .  A
C922        C923   1.402       .  A
C922        H927   1.081       .  S
C923        C924   1.415       .  A
C923        C930   1.444       .  S
C924        C925   1.409       .  A
C925        C926   1.403       .  A
C925        H928   1.084       .  S
C926        C929   1.442       .  S
C929        N931   1.157       .  T
C930        N932   1.157       .  T
C933        C934   1.401       .  A
C933        C938   1.412       .  A
C934        C935   1.403       .  A
C934        H939   1.083       .  S
C935        C936   1.420       .  A
C935        C942   1.442       .  S
C936        C937   1.406       .  A
C937        C938   1.402       .  A
C937        H940   1.084       .  S
C938        C941   1.441       .  S
C941        N943   1.157       .  T
C942        N944   1.157       .  T
C945        C946   1.401       .  A
C945        C950   1.410       .  A
C946        C947   1.402       .  A
C946        H951   1.081       .  S
C947        C948   1.416       .  A
C947        C954   1.443       .  S
C948        C949   1.406       .  A
C949        C950   1.402       .  A
C949        H952   1.084       .  S
C950        C953   1.443       .  S
C953        N955   1.157       .  T
C954        N956   1.157       .  T
C957        C958   1.407       .  A
C957        C962   1.410       .  A
C958        C959   1.411       .  A
C958        H963   1.083       .  S
C959        C960   1.417       .  A
C959        C966   1.443       .  S
C960        C961   1.409       .  A
C961        C962   1.396       .  A
C961        H964   1.085       .  S
C962        C965   1.443       .  S
C965        N967   1.157       .  T
C966        N968   1.157       .  T
C969        C970   1.408       .  A
C969        C974   1.418       .  A
C970        C971   1.401       .  A
C970        H975   1.085       .  S
C971        C972   1.409       .  A
C971        C978   1.442       .  S
C972        C973   1.404       .  A
C973        C974   1.407       .  A
C973        H976   1.084       .  S
C974        C977   1.443       .  S
C977        N979   1.157       .  T
C978        N980   1.157       .  T
C981        C982   1.409       .  A
C981        C986   1.416       .  A
C982        C983   1.402       .  A
C982        H987   1.084       .  S
C983        C984   1.409       .  A
C983        C990   1.442       .  S
C984        C985   1.404       .  A
C985        C986   1.404       .  A
C985        H988   1.083       .  S
C986        C989   1.444       .  S
C989        N991   1.157       .  T
C990        N992   1.157       .  T
C993        C994   1.403       .  A
C993        C998   1.417       .  A
C994        C995   1.401       .  A
C994        H999   1.085       .  S
C995        C996   1.413       .  A
C995       C1002   1.438       .  S
C996        C997   1.404       .  A
C997        C998   1.402       .  A
C997       H1000   1.084       .  S
C998       C1001   1.444       .  S
C1001      N1003   1.157       .  T
C1002      N1004   1.157       .  T
C1005      C1006   1.407       .  A
C1005      C1010   1.416       .  A
C1006      C1007   1.399       .  A
C1006      H1011   1.085       .  S
C1007      C1008   1.410       .  A
C1007      C1014   1.440       .  S
C1008      C1009   1.405       .  A
C1009      C1010   1.406       .  A
C1009      H1012   1.083       .  S
C1010      C1013   1.444       .  S
C1013      N1015   1.157       .  T
C1014      N1016   1.157       .  T
C1017      C1018   1.410       .  A
C1017      C1022   1.417       .  A
C1018      C1019   1.404       .  A
C1018      H1023   1.084       .  S
C1019      C1020   1.408       .  A
C1019      C1026   1.443       .  S
C1020      C1021   1.400       .  A
C1021      C1022   1.399       .  A
C1021      H1024   1.083       .  S
C1022      C1025   1.444       .  S
C1025      N1027   1.157       .  T
C1026      N1028   1.157       .  T
C1029      C1030   1.409       .  A
C1029      C1034   1.415       .  A
C1030      C1031   1.402       .  A
C1030      H1035   1.085       .  S
C1031      C1032   1.409       .  A
C1031      C1038   1.443       .  S
C1032      C1033   1.402       .  A
C1033      C1034   1.400       .  A
C1033      H1036   1.080       .  S
C1034      C1037   1.444       .  S
C1037      N1039   1.157       .  T
C1038      N1040   1.157       .  T
C1041      C1042   1.400       .  A
C1041      C1046   1.411       .  A
C1042      C1043   1.399       .  A
C1042      H1047   1.084       .  S
C1043      C1044   1.420       .  A
C1043      C1050   1.445       .  S
C1044      C1045   1.407       .  A
C1045      C1046   1.405       .  A
C1045      H1048   1.084       .  S
C1046      C1049   1.439       .  S
C1049      N1051   1.157       .  T
C1050      N1052   1.157       .  T
C1053      C1054   1.405       .  A
C1053      C1058   1.410       .  A
C1054      C1055   1.404       .  A
C1054      H1059   1.080       .  S
C1055      C1056   1.413       .  A
C1055      C1062   1.443       .  S
C1056      C1057   1.407       .  A
C1057      C1058   1.401       .  A
C1057      H1060   1.084       .  S
C1058      C1061   1.442       .  S
C1061      N1063   1.157       .  T
C1062      N1064   1.157       .  T
C1065      C1066   1.405       .  A
C1065      C1070   1.415       .  A
C1066      C1067   1.398       .  A
C1066      H1071   1.084       .  S
C1067      C1068   1.410       .  A
C1067      C1074   1.443       .  S
C1068      C1069   1.404       .  A
C1069      C1070   1.403       .  A
C1069      H1072   1.083       .  S
C1070      C1073   1.444       .  S
C1073      N1075   1.157       .  T
C1074      N1076   1.157       .  T
C1077      C1078   1.403       .  A
C1077      C1082   1.410       .  A
C1078      C1079   1.407       .  A
C1078      H1083   1.082       .  S
C1079      C1080   1.419       .  A
C1079      C1086   1.443       .  S
C1080      C1081   1.409       .  A
C1081      C1082   1.400       .  A
C1081      H1084   1.084       .  S
C1082      C1085   1.444       .  S
C1085      N1087   1.157       .  T
C1086      N1088   1.157       .  T
C1089      C1090   1.406       .  A
C1089      C1094   1.417       .  A
C1090      C1091   1.396       .  A
C1090      H1095   1.085       .  S
C1091      C1092   1.410       .  A
C1091      C1098   1.440       .  S
C1092      C1093   1.406       .  A
C1093      C1094   1.408       .  A
C1093      H1096   1.084       .  S
C1094      C1097   1.443       .  S
C1097      N1099   1.157       .  T
C1098      N1100   1.157       .  T
C1101      C1102   1.406       .  A
C1101      C1106   1.415       .  A
C1102      C1103   1.403       .  A
C1102      H1107   1.085       .  S
C1103      C1104   1.411       .  A
C1103      C1110   1.441       .  S
C1104      C1105   1.403       .  A
C1105      C1106   1.400       .  A
C1105      H1108   1.083       .  S
C1106      C1109   1.444       .  S
C1109      N1111   1.157       .  T
C1110      N1112   1.157       .  T
C1113      C1114   1.410       .  A
C1113      C1118   1.415       .  A
C1114      C1115   1.402       .  A
C1114      H1119   1.084       .  S
C1115      C1116   1.408       .  A
C1115      C1122   1.443       .  S
C1116      C1117   1.401       .  A
C1117      C1118   1.399       .  A
C1117      H1120   1.082       .  S
C1118      C1121   1.444       .  S
C1121      N1123   1.157       .  T
C1122      N1124   1.157       .  T
C1125      C1126   1.400       .  A
C1125      C1130   1.409       .  A
C1126      C1127   1.398       .  A
C1126      H1131   1.083       .  S
C1127      C1128   1.417       .  A
C1127      C1134   1.444       .  S
C1128      C1129   1.410       .  A
C1129      C1130   1.405       .  A
C1129      H1132   1.084       .  S
C1130      C1133   1.443       .  S
C1133      N1135   1.157       .  T
C1134      N1136   1.157       .  T
C1137      C1138   1.407       .  A
C1137      C1142   1.417       .  A
C1138      C1139   1.402       .  A
C1138      H1143   1.085       .  S
C1139      C1140   1.413       .  A
C1139      C1146   1.443       .  S
C1140      C1141   1.400       .  A
C1141      C1142   1.401       .  A
C1141      H1144   1.084       .  S
C1142      C1145   1.443       .  S
C1145      N1147   1.157       .  T
C1146      N1148   1.157       .  T
C1149      C1150   1.408       .  A
C1149      C1154   1.428       .  A
C1150      C1151   1.411       .  A
C1150      H1155   1.084       .  S
C1151      C1152   1.415       .  A
C1151      C1158   1.440       .  S
C1152      C1153   1.395       .  A
C1153      C1154   1.390       .  A
C1153      H1156   1.084       .  S
C1154      C1157   1.449       .  S
C1157      N1159   1.158       .  T
C1158      N1160   1.157       .  T
C1161      C1162   1.405       .  A
C1161      C1166   1.413       .  A
C1162      C1163   1.408       .  A
C1162      H1167   1.083       .  S
C1163      C1164   1.415       .  A
C1163      C1170   1.443       .  S
C1164      C1165   1.405       .  A
C1165      C1166   1.400       .  A
C1165      H1168   1.085       .  S
C1166      C1169   1.443       .  S
C1169      N1171   1.157       .  T
C1170      N1172   1.157       .  T
C1173      C1174   1.408       .  A
C1173      C1178   1.415       .  A
C1174      C1175   1.393       .  A
C1174      H1179   1.085       .  S
C1175      C1176   1.408       .  A
C1175      C1182   1.444       .  S
C1176      C1177   1.404       .  A
C1177      C1178   1.405       .  A
C1177      H1180   1.082       .  S
C1178      C1181   1.442       .  S
C1181      N1183   1.157       .  T
C1182      N1184   1.157       .  T
C1185      C1186   1.407       .  A
C1185      C1190   1.418       .  A
C1186      C1187   1.401       .  A
C1186      H1191   1.085       .  S
C1187      C1188   1.411       .  A
C1187      C1194   1.441       .  S
C1188      C1189   1.403       .  A
C1189      C1190   1.405       .  A
C1189      H1192   1.083       .  S
C1190      C1193   1.444       .  S
C1193      N1195   1.157       .  T
C1194      N1196   1.157       .  T
C1197      C1198   1.402       .  A
C1197      C1202   1.408       .  A
C1198      C1199   1.402       .  A
C1198      H1203   1.083       .  S
C1199      C1200   1.417       .  A
C1199      C1206   1.444       .  S
C1200      C1201   1.408       .  A
C1201      C1202   1.400       .  A
C1201      H1204   1.084       .  S
C1202      C1205   1.442       .  S
C1205      N1207   1.157       .  T
C1206      N1208   1.157       .  T
C1209      C1210   1.404       .  A
C1209      C1214   1.412       .  A
C1210      C1211   1.402       .  A
C1210      H1215   1.082       .  S
C1211      C1212   1.416       .  A
C1211      C1218   1.444       .  S
C1212      C1213   1.407       .  A
C1213      C1214   1.404       .  A
C1213      H1216   1.085       .  S
C1214      C1217   1.441       .  S
C1217      N1219   1.157       .  T
C1218      N1220   1.157       .  T
C1221      C1222   1.406       .  A
C1221      C1226   1.410       .  A
C1222      C1223   1.406       .  A
C1222      H1227   1.084       .  S
C1223      C1224   1.416       .  A
C1223      C1230   1.443       .  S
C1224      C1225   1.405       .  A
C1225      C1226   1.395       .  A
C1225      H1228   1.085       .  S
C1226      C1229   1.440       .  S
C1229      N1231   1.157       .  T
C1230      N1232   1.157       .  T
C1233      C1234   1.401       .  A
C1233      C1238   1.409       .  A
C1234      C1235   1.399       .  A
C1234      H1239   1.079       .  S
C1235      C1236   1.415       .  A
C1235      C1242   1.444       .  S
C1236      C1237   1.409       .  A
C1237      C1238   1.401       .  A
C1237      H1240   1.084       .  S
C1238      C1241   1.443       .  S
C1241      N1243   1.157       .  T
C1242      N1244   1.157       .  T
C1245      C1246   1.406       .  A
C1245      C1250   1.416       .  A
C1246      C1247   1.404       .  A
C1246      H1251   1.084       .  S
C1247      C1248   1.411       .  A
C1247      C1254   1.441       .  S
C1248      C1249   1.400       .  A
C1249      C1250   1.399       .  A
C1249      H1252   1.080       .  S
C1250      C1253   1.444       .  S
C1253      N1255   1.157       .  T
C1254      N1256   1.157       .  T
C1257      C1258   1.405       .  A
C1257      C1262   1.411       .  A
C1258      C1259   1.408       .  A
C1258      H1263   1.083       .  S
C1259      C1260   1.418       .  A
C1259      C1266   1.443       .  S
C1260      C1261   1.408       .  A
C1261      C1262   1.401       .  A
C1261      H1264   1.084       .  S
C1262      C1265   1.440       .  S
C1265      N1267   1.157       .  T
C1266      N1268   1.157       .  T
C1269      C1270   1.407       .  A
C1269      C1274   1.417       .  A
C1270      C1271   1.405       .  A
C1270      H1275   1.084       .  S
C1271      C1272   1.411       .  A
C1271      C1278   1.441       .  S
C1272      C1273   1.403       .  A
C1273      C1274   1.403       .  A
C1273      H1276   1.083       .  S
C1274      C1277   1.444       .  S
C1277      N1279   1.157       .  T
C1278      N1280   1.157       .  T
C1281      C1282   1.407       .  A
C1281      C1286   1.419       .  A
C1282      C1283   1.401       .  A
C1282      H1287   1.085       .  S
C1283      C1284   1.410       .  A
C1283      C1290   1.442       .  S
C1284      C1285   1.402       .  A
C1285      C1286   1.403       .  A
C1285      H1288   1.082       .  S
C1286      C1289   1.444       .  S
C1289      N1291   1.157       .  T
C1290      N1292   1.157       .  T
C1293      C1294   1.400       .  A
C1293      C1298   1.412       .  A
C1294      C1295   1.400       .  A
C1294      H1299   1.084       .  S
C1295      C1296   1.419       .  A
C1295      C1302   1.445       .  S
C1296      C1297   1.405       .  A
C1297      C1298   1.403       .  A
C1297      H1300   1.084       .  S
C1298      C1301   1.441       .  S
C1301      N1303   1.157       .  T
C1302      N1304   1.157       .  T
C1305      C1306   1.406       .  A
C1305      C1310   1.416       .  A
C1306      C1307   1.403       .  A
C1306      H1311   1.084       .  S
C1307      C1308   1.411       .  A
C1307      C1314   1.442       .  S
C1308      C1309   1.401       .  A
C1309      C1310   1.402       .  A
C1309      H1312   1.083       .  S
C1310      C1313   1.444       .  S
C1313      N1315   1.157       .  T
C1314      N1316   1.157       .  T
C1317      C1318   1.408       .  A
C1317      C1322   1.416       .  A
C1318      C1319   1.400       .  A
C1318      H1323   1.084       .  S
C1319      C1320   1.409       .  A
C1319      C1326   1.442       .  S
C1320      C1321   1.403       .  A
C1321      C1322   1.403       .  A
C1321      H1324   1.080       .  S
C1322      C1325   1.444       .  S
C1325      N1327   1.157       .  T
C1326      N1328   1.157       .  T
C1329      C1330   1.404       .  A
C1329      C1334   1.417       .  A
C1330      C1331   1.400       .  A
C1330      H1335   1.084       .  S
C1331      C1332   1.413       .  A
C1331      C1338   1.440       .  S
C1332      C1333   1.406       .  A
C1333      C1334   1.408       .  A
C1333      H1336   1.084       .  S
C1334      C1337   1.443       .  S
C1337      N1339   1.157       .  T
C1338      N1340   1.157       .  T
C1341      C1342   1.401       .  A
C1341      C1346   1.411       .  A
C1342      C1343   1.398       .  A
C1342      H1347   1.084       .  S
C1343      C1344   1.418       .  A
C1343      C1350   1.445       .  S
C1344      C1345   1.405       .  A
C1345      C1346   1.402       .  A
C1345      H1348   1.084       .  S
C1346      C1349   1.439       .  S
C1349      N1351   1.157       .  T
C1350      N1352   1.157       .  T
C1353      C1354   1.408       .  A
C1353      C1358   1.409       .  A
C1354      C1355   1.410       .  A
C1354      H1359   1.081       .  S
C1355      C1356   1.414       .  A
C1355      C1362   1.442       .  S
C1356      C1357   1.410       .  A
C1357      C1358   1.397       .  A
C1357      H1360   1.085       .  S
C1358      C1361   1.443       .  S
C1361      N1363   1.157       .  T
C1362      N1364   1.157       .  T
C1365      C1366   1.399       .  A
C1365      C1370   1.413       .  A
C1366      C1367   1.396       .  A
C1366      H1371   1.085       .  S
C1367      C1368   1.418       .  A
C1367      C1374   1.445       .  S
C1368      C1369   1.402       .  A
C1369      C1370   1.402       .  A
C1369      H1372   1.084       .  S
C1370      C1373   1.440       .  S
C1373      N1375   1.157       .  T
C1374      N1376   1.157       .  T
C1377      C1378   1.410       .  A
C1377      C1382   1.414       .  A
C1378      C1379   1.406       .  A
C1378      H1383   1.085       .  S
C1379      C1380   1.409       .  A
C1379      C1386   1.441       .  S
C1380      C1381   1.403       .  A
C1381      C1382   1.400       .  A
C1381      H1384   1.083       .  S
C1382      C1385   1.444       .  S
C1385      N1387   1.157       .  T
C1386      N1388   1.157       .  T
C1389      C1390   1.403       .  A
C1389      C1394   1.416       .  A
C1390      C1391   1.403       .  A
C1390      H1395   1.085       .  S
C1391      C1392   1.413       .  A
C1391      C1398   1.438       .  S
C1392      C1393   1.404       .  A
C1393      C1394   1.401       .  A
C1393      H1396   1.084       .  S
C1394      C1397   1.444       .  S
C1397      N1399   1.157       .  T
C1398      N1400   1.156       .  T
C1401      C1402   1.410       .  A
C1401      C1406   1.419       .  A
C1402      C1403   1.407       .  A
C1402      H1407   1.084       .  S
C1403      C1404   1.410       .  A
C1403      C1410   1.442       .  S
C1404      C1405   1.400       .  A
C1405      C1406   1.400       .  A
C1405      H1408   1.082       .  S
C1406      C1409   1.444       .  S
C1409      N1411   1.157       .  T
C1410      N1412   1.157       .  T
C1413      C1414   1.409       .  A
C1413      C1418   1.407       .  A
C1414      C1415   1.411       .  A
C1414      H1419   1.084       .  S
C1415      C1416   1.415       .  A
C1415      C1422   1.442       .  S
C1416      C1417   1.411       .  A
C1417      C1418   1.396       .  A
C1417      H1420   1.085       .  S
C1418      C1421   1.443       .  S
C1421      N1423   1.157       .  T
C1422      N1424   1.157       .  T
C1425      C1426   1.399       .  A
C1425      C1430   1.411       .  A
C1426      C1427   1.400       .  A
C1426      H1431   1.084       .  S
C1427      C1428   1.420       .  A
C1427      C1434   1.444       .  S
C1428      C1429   1.404       .  A
C1429      C1430   1.402       .  A
C1429      H1432   1.084       .  S
C1430      C1433   1.441       .  S
C1433      N1435   1.157       .  T
C1434      N1436   1.157       .  T
C1437      C1438   1.406       .  A
C1437      C1442   1.416       .  A
C1438      C1439   1.400       .  A
C1438      H1443   1.085       .  S
C1439      C1440   1.410       .  A
C1439      C1446   1.440       .  S
C1440      C1441   1.404       .  A
C1441      C1442   1.404       .  A
C1441      H1444   1.084       .  S
C1442      C1445   1.444       .  S
C1445      N1447   1.157       .  T
C1446      N1448   1.157       .  T
C1449      C1450   1.403       .  A
C1449      C1454   1.415       .  A
C1450      C1451   1.397       .  A
C1450      H1455   1.085       .  S
C1451      C1452   1.411       .  A
C1451      C1458   1.441       .  S
C1452      C1453   1.404       .  A
C1453      C1454   1.403       .  A
C1453      H1456   1.084       .  S
C1454      C1457   1.444       .  S
C1457      N1459   1.157       .  T
C1458      N1460   1.157       .  T
C1461      C1462   1.403       .  A
C1461      C1466   1.412       .  A
C1462      C1463   1.400       .  A
C1462      H1467   1.084       .  S
C1463      C1464   1.416       .  A
C1463      C1470   1.444       .  S
C1464      C1465   1.406       .  A
C1465      C1466   1.404       .  A
C1465      H1468   1.084       .  S
C1466      C1469   1.441       .  S
C1469      N1471   1.157       .  T
C1470      N1472   1.157       .  T
C1473      C1474   1.408       .  A
C1473      C1478   1.421       .  A
C1474      C1475   1.405       .  A
C1474      H1479   1.084       .  S
C1475      C1476   1.410       .  A
C1475      C1482   1.441       .  S
C1476      C1477   1.400       .  A
C1477      C1478   1.401       .  A
C1477      H1480   1.084       .  S
C1478      C1481   1.445       .  S
C1481      N1483   1.157       .  T
C1482      N1484   1.157       .  T
C1485      C1486   1.409       .  A
C1485      C1490   1.419       .  A
C1486      C1487   1.404       .  A
C1486      H1491   1.084       .  S
C1487      C1488   1.409       .  A
C1487      C1494   1.443       .  S
C1488      C1489   1.397       .  A
C1489      C1490   1.395       .  A
C1489      H1492   1.083       .  S
C1490      C1493   1.445       .  S
C1493      N1495   1.157       .  T
C1494      N1496   1.157       .  T
C1497      C1498   1.402       .  A
C1497      C1502   1.411       .  A
C1498      C1499   1.398       .  A
C1498      H1503   1.083       .  S
C1499      C1500   1.416       .  A
C1499      C1506   1.444       .  S
C1500      C1501   1.407       .  A
C1501      C1502   1.405       .  A
C1501      H1504   1.084       .  S
C1502      C1505   1.441       .  S
C1505      N1507   1.157       .  T
C1506      N1508   1.157       .  T
C1509      C1510   1.407       .  A
C1509      C1514   1.410       .  A
C1510      C1511   1.410       .  A
C1510      H1515   1.084       .  S
C1511      C1512   1.417       .  A
C1511      C1518   1.443       .  S
C1512      C1513   1.405       .  A
C1513      C1514   1.394       .  A
C1513      H1516   1.085       .  S
C1514      C1517   1.441       .  S
C1517      N1519   1.157       .  T
C1518      N1520   1.157       .  T
C1521      C1522   1.404       .  A
C1521      C1526   1.412       .  A
C1522      C1523   1.402       .  A
C1522      H1527   1.084       .  S
C1523      C1524   1.416       .  A
C1523      C1530   1.445       .  S
C1524      C1525   1.403       .  A
C1525      C1526   1.399       .  A
C1525      H1528   1.085       .  S
C1526      C1529   1.439       .  S
C1529      N1531   1.156       .  T
C1530      N1532   1.157       .  T
C1533      C1534   1.401       .  A
C1533      C1538   1.411       .  A
C1534      C1535   1.401       .  A
C1534      H1539   1.083       .  S
C1535      C1536   1.417       .  A
C1535      C1542   1.444       .  S
C1536      C1537   1.408       .  A
C1537      C1538   1.405       .  A
C1537      H1540   1.084       .  S
C1538      C1541   1.442       .  S
C1541      N1543   1.157       .  T
C1542      N1544   1.157       .  T
C1545      C1546   1.406       .  A
C1545      C1550   1.410       .  A
C1546      C1547   1.410       .  A
C1546      H1551   1.084       .  S
C1547      C1548   1.418       .  A
C1547      C1554   1.443       .  S
C1548      C1549   1.406       .  A
C1549      C1550   1.396       .  A
C1549      H1552   1.085       .  S
C1550      C1553   1.441       .  S
C1553      N1555   1.157       .  T
C1554      N1556   1.157       .  T
C1557      C1558   1.403       .  A
C1557      C1562   1.411       .  A
C1558      C1559   1.400       .  A
C1558      H1563   1.084       .  S
C1559      C1560   1.416       .  A
C1559      C1566   1.444       .  S
C1560      C1561   1.408       .  A
C1561      C1562   1.406       .  A
C1561      H1564   1.084       .  S
C1562      C1565   1.441       .  S
C1565      N1567   1.157       .  T
C1566      N1568   1.157       .  T
C1569      C1570   1.426       .  A
C1569      C1574   1.402       .  A
C1570      C1571   1.427       .  A
C1570      H1575   1.074       .  S
C1571      C1572   1.415       .  A
C1571      C1578   1.440       .  S
C1572      C1573   1.396       .  A
C1573      C1574   1.371       .  A
C1573      H1576   1.075       .  S
C1574      C1577   1.441       .  S
C1577      N1579   1.157       .  T
C1578      N1580   1.157       .  T
C1581      C1582   1.406       .  A
C1581      C1586   1.416       .  A
C1582      C1583   1.405       .  A
C1582      H1587   1.084       .  S
C1583      C1584   1.414       .  A
C1583      C1590   1.443       .  S
C1584      C1585   1.404       .  A
C1585      C1586   1.405       .  A
C1585      H1588   1.080       .  S
C1586      C1589   1.444       .  S
C1589      N1591   1.157       .  T
C1590      N1592   1.157       .  T
C1593      C1594   1.407       .  A
C1593      C1598   1.414       .  A
C1594      C1595   1.399       .  A
C1594      H1599   1.085       .  S
C1595      C1596   1.410       .  A
C1595      C1602   1.441       .  S
C1596      C1597   1.405       .  A
C1597      C1598   1.402       .  A
C1597      H1600   1.083       .  S
C1598      C1601   1.444       .  S
C1601      N1603   1.157       .  T
C1602      N1604   1.157       .  T
C1605      C1606   1.407       .  A
C1605      C1610   1.416       .  A
C1606      C1607   1.401       .  A
C1606      H1611   1.085       .  S
C1607      C1608   1.411       .  A
C1607      C1614   1.440       .  S
C1608      C1609   1.405       .  A
C1609      C1610   1.405       .  A
C1609      H1612   1.084       .  S
C1610      C1613   1.444       .  S
C1613      N1615   1.157       .  T
C1614      N1616   1.157       .  T
C1617      C1618   1.404       .  A
C1617      C1622   1.416       .  A
C1618      C1619   1.403       .  A
C1618      H1623   1.084       .  S
C1619      C1620   1.412       .  A
C1619      C1626   1.441       .  S
C1620      C1621   1.402       .  A
C1621      C1622   1.402       .  A
C1621      H1624   1.081       .  S
C1622      C1625   1.444       .  S
C1625      N1627   1.157       .  T
C1626      N1628   1.157       .  T
C1629      C1630   1.410       .  A
C1629      C1634   1.417       .  A
C1630      C1631   1.406       .  A
C1630      H1635   1.084       .  S
C1631      C1632   1.410       .  A
C1631      C1638   1.442       .  S
C1632      C1633   1.402       .  A
C1633      C1634   1.401       .  A
C1633      H1636   1.083       .  S
C1634      C1637   1.444       .  S
C1637      N1639   1.157       .  T
C1638      N1640   1.157       .  T
C1641      C1642   1.407       .  A
C1641      C1646   1.418       .  A
C1642      C1643   1.404       .  A
C1642      H1647   1.084       .  S
C1643      C1644   1.411       .  A
C1643      C1650   1.441       .  S
C1644      C1645   1.403       .  A
C1645      C1646   1.405       .  A
C1645      H1648   1.084       .  S
C1646      C1649   1.444       .  S
C1649      N1651   1.157       .  T
C1650      N1652   1.157       .  T
C1653      C1654   1.406       .  A
C1653      C1658   1.416       .  A
C1654      C1655   1.404       .  A
C1654      H1659   1.085       .  S
C1655      C1656   1.412       .  A
C1655      C1662   1.442       .  S
C1656      C1657   1.402       .  A
C1657      C1658   1.402       .  A
C1657      H1660   1.080       .  S
C1658      C1661   1.445       .  S
C1661      N1663   1.157       .  T
C1662      N1664   1.157       .  T
C1665      C1666   1.405       .  A
C1665      C1670   1.412       .  A
C1666      C1667   1.406       .  A
C1666      H1671   1.083       .  S
C1667      C1668   1.414       .  A
C1667      C1674   1.443       .  S
C1668      C1669   1.404       .  A
C1669      C1670   1.398       .  A
C1669      H1672   1.085       .  S
C1670      C1673   1.444       .  S
C1673      N1675   1.157       .  T
C1674      N1676   1.157       .  T
C1677      C1678   1.404       .  A
C1677      C1682   1.416       .  A
C1678      C1679   1.401       .  A
C1678      H1683   1.084       .  S
C1679      C1680   1.411       .  A
C1679      C1686   1.443       .  S
C1680      C1681   1.402       .  A
C1681      C1682   1.404       .  A
C1681      H1684   1.083       .  S
C1682      C1685   1.444       .  S
C1685      N1687   1.157       .  T
C1686      N1688   1.157       .  T
C1689      C1690   1.408       .  A
C1689      C1694   1.416       .  A
C1690      C1691   1.404       .  A
C1690      H1695   1.085       .  S
C1691      C1692   1.410       .  A
C1691      C1698   1.440       .  S
C1692      C1693   1.403       .  A
C1693      C1694   1.401       .  A
C1693      H1696   1.084       .  S
C1694      C1697   1.444       .  S
C1697      N1699   1.157       .  T
C1698      N1700   1.157       .  T
C1701      C1702   1.402       .  A
C1701      C1706   1.411       .  A
C1702      C1703   1.403       .  A
C1702      H1707   1.084       .  S
C1703      C1704   1.418       .  A
C1703      C1710   1.444       .  S
C1704      C1705   1.405       .  A
C1705      C1706   1.403       .  A
C1705      H1708   1.084       .  S
C1706      C1709   1.442       .  S
C1709      N1711   1.157       .  T
C1710      N1712   1.157       .  T
C1713      C1714   1.402       .  A
C1713      C1718   1.411       .  A
C1714      C1715   1.398       .  A
C1714      H1719   1.083       .  S
C1715      C1716   1.416       .  A
C1715      C1722   1.444       .  S
C1716      C1717   1.406       .  A
C1717      C1718   1.402       .  A
C1717      H1720   1.084       .  S
C1718      C1721   1.441       .  S
C1721      N1723   1.157       .  T
C1722      N1724   1.157       .  T
C1725      C1726   1.407       .  A
C1725      C1730   1.418       .  A
C1726      C1727   1.399       .  A
C1726      H1731   1.085       .  S
C1727      C1728   1.409       .  A
C1727      C1734   1.442       .  S
C1728      C1729   1.403       .  A
C1729      C1730   1.404       .  A
C1729      H1732   1.083       .  S
C1730      C1733   1.443       .  S
C1733      N1735   1.157       .  T
C1734      N1736   1.157       .  T
C1737      C1738   1.400       .  A
C1737      C1742   1.411       .  A
C1738      C1739   1.400       .  A
C1738      H1743   1.082       .  S
C1739      C1740   1.419       .  A
C1739      C1746   1.445       .  S
C1740      C1741   1.405       .  A
C1741      C1742   1.404       .  A
C1741      H1744   1.084       .  S
C1742      C1745   1.441       .  S
C1745      N1747   1.157       .  T
C1746      N1748   1.157       .  T
C1749      C1750   1.403       .  A
C1749      C1754   1.410       .  A
C1750      C1751   1.400       .  A
C1750      H1755   1.083       .  S
C1751      C1752   1.415       .  A
C1751      C1758   1.444       .  S
C1752      C1753   1.408       .  A
C1753      C1754   1.404       .  A
C1753      H1756   1.085       .  S
C1754      C1757   1.441       .  S
C1757      N1759   1.157       .  T
C1758      N1760   1.157       .  T
C1761      C1762   1.404       .  A
C1761      C1766   1.412       .  A
C1762      C1763   1.405       .  A
C1762      H1767   1.084       .  S
C1763      C1764   1.417       .  A
C1763      C1770   1.444       .  S
C1764      C1765   1.404       .  A
C1765      C1766   1.402       .  A
C1765      H1768   1.084       .  S
C1766      C1769   1.441       .  S
C1769      N1771   1.157       .  T
C1770      N1772   1.157       .  T
C1773      C1774   1.407       .  A
C1773      C1778   1.415       .  A
C1774      C1775   1.404       .  A
C1774      H1779   1.084       .  S
C1775      C1776   1.411       .  A
C1775      C1782   1.441       .  S
C1776      C1777   1.404       .  A
C1777      C1778   1.401       .  A
C1777      H1780   1.084       .  S
C1778      C1781   1.444       .  S
C1781      N1783   1.157       .  T
C1782      N1784   1.157       .  T
C1785      C1786   1.402       .  A
C1785      C1790   1.409       .  A
C1786      C1787   1.401       .  A
C1786      H1791   1.081       .  S
C1787      C1788   1.417       .  A
C1787      C1794   1.444       .  S
C1788      C1789   1.410       .  A
C1789      C1790   1.404       .  A
C1789      H1792   1.084       .  S
C1790      C1793   1.443       .  S
C1793      N1795   1.157       .  T
C1794      N1796   1.157       .  T
C1797      C1798   1.404       .  A
C1797      C1802   1.408       .  A
C1798      C1799   1.404       .  A
C1798      H1803   1.083       .  S
C1799      C1800   1.417       .  A
C1799      C1806   1.444       .  S
C1800      C1801   1.410       .  A
C1801      C1802   1.401       .  A
C1801      H1804   1.085       .  S
C1802      C1805   1.442       .  S
C1805      N1807   1.157       .  T
C1806      N1808   1.157       .  T
C1809      C1810   1.408       .  A
C1809      C1814   1.416       .  A
C1810      C1811   1.399       .  A
C1810      H1815   1.085       .  S
C1811      C1812   1.409       .  A
C1811      C1818   1.441       .  S
C1812      C1813   1.404       .  A
C1813      C1814   1.404       .  A
C1813      H1816   1.083       .  S
C1814      C1817   1.443       .  S
C1817      N1819   1.157       .  T
C1818      N1820   1.157       .  T
C1821      C1822   1.402       .  A
C1821      C1826   1.407       .  A
C1822      C1823   1.402       .  A
C1822      H1827   1.082       .  S
C1823      C1824   1.415       .  A
C1823      C1830   1.443       .  S
C1824      C1825   1.410       .  A
C1825      C1826   1.399       .  A
C1825      H1828   1.085       .  S
C1826      C1829   1.442       .  S
C1829      N1831   1.157       .  T
C1830      N1832   1.157       .  T
C1833      C1834   1.404       .  A
C1833      C1838   1.412       .  A
C1834      C1835   1.403       .  A
C1834      H1839   1.083       .  S
C1835      C1836   1.413       .  A
C1835      C1842   1.443       .  S
C1836      C1837   1.404       .  A
C1837      C1838   1.399       .  A
C1837      H1840   1.085       .  S
C1838      C1841   1.443       .  S
C1841      N1843   1.157       .  T
C1842      N1844   1.157       .  T
C1845      C1846   1.404       .  A
C1845      C1850   1.408       .  A
C1846      C1847   1.406       .  A
C1846      H1851   1.083       .  S
C1847      C1848   1.415       .  A
C1847      C1854   1.443       .  S
C1848      C1849   1.408       .  A
C1849      C1850   1.393       .  A
C1849      H1852   1.085       .  S
C1850      C1853   1.444       .  S
C1853      N1855   1.157       .  T
C1854      N1856   1.157       .  T
C1857      C1858   1.403       .  A
C1857      C1862   1.411       .  A
C1858      C1859   1.401       .  A
C1858      H1863   1.083       .  S
C1859      C1860   1.416       .  A
C1859      C1866   1.444       .  S
C1860      C1861   1.405       .  A
C1861      C1862   1.401       .  A
C1861      H1864   1.084       .  S
C1862      C1865   1.440       .  S
C1865      N1867   1.157       .  T
C1866      N1868   1.157       .  T
C1869      C1870   1.404       .  A
C1869      C1874   1.408       .  A
C1870      C1871   1.405       .  A
C1870      H1875   1.083       .  S
C1871      C1872   1.416       .  A
C1871      C1878   1.443       .  S
C1872      C1873   1.408       .  A
C1873      C1874   1.398       .  A
C1873      H1876   1.085       .  S
C1874      C1877   1.443       .  S
C1877      N1879   1.157       .  T
C1878      N1880   1.157       .  T
C1881      C1882   1.403       .  A
C1881      C1886   1.407       .  A
C1882      C1883   1.404       .  A
C1882      H1887   1.080       .  S
C1883      C1884   1.414       .  A
C1883      C1890   1.443       .  S
C1884      C1885   1.410       .  A
C1885      C1886   1.396       .  A
C1885      H1888   1.084       .  S
C1886      C1889   1.444       .  S
C1889      N1891   1.157       .  T
C1890      N1892   1.157       .  T
C1893      C1894   1.406       .  A
C1893      C1898   1.412       .  A
C1894      C1895   1.405       .  A
C1894      H1899   1.083       .  S
C1895      C1896   1.412       .  A
C1895      C1902   1.443       .  S
C1896      C1897   1.404       .  A
C1897      C1898   1.398       .  A
C1897      H1900   1.085       .  S
C1898      C1901   1.443       .  S
C1901      N1903   1.157       .  T
C1902      N1904   1.157       .  T
