geometry optimzed in LAMMPS
_audit_creation_date              2020-12-01 
_audit_creation_method            'lammps2cif' 
_symmetry_space_group_name_H-M    'P1' 
_symmetry_Int_Tables_number       1 
_symmetry_cell_setting            triclinic 
loop_ 
_symmetry_equiv_pos_as_xyz 
  x,y,z 
_cell_length_a                    41.87572991 
_cell_length_b                    37.47921353872739 
_cell_length_c                    40.67293971756529 
_cell_angle_alpha                 91.06863405703825 
_cell_angle_beta                  91.25927091099221 
_cell_angle_gamma                 92.95610418569146 
loop_ 
_atom_site_label 
_atom_site_type_symbol 
_atom_site_fract_x 
_atom_site_fract_y 
_atom_site_fract_z 
_atom_site_charge 
C1          C  0.40072616  0.35712733  0.34990345     0.84900
C2          C  0.41769180  0.38494863  0.37322241    -0.55300
C3          C  0.39863404  0.40490033  0.39232668     0.07800
C4          C  0.36167088  0.39518803  0.38523481     0.18800
C5          C  0.37816203  0.33460877  0.37292408    -0.56100
C6          C  0.35705257  0.35356001  0.39160806     0.07900
C7          C  0.37719973  0.37952379  0.32924586    -0.55600
C8          C  0.35644747  0.39994113  0.34665214     0.08500
H9          H  0.44362006  0.38835822  0.37475201     0.13000
H10         H  0.34579838  0.41148409  0.40021584    -0.01200
H11         H  0.37897049  0.30577108  0.37421489     0.13300
H12         H  0.37746122  0.37967175  0.30257188     0.13100
C13         C  0.10337661  0.10790224  0.10962907     0.84900
C14         C  0.12481471  0.13437400  0.09027869    -0.55300
C15         C  0.14421959  0.15863680  0.10794934     0.07800
C16         C  0.13880882  0.15344300  0.14708109     0.18800
C17         C  0.12671587  0.09011230  0.13374649    -0.56100
C18         C  0.14593810  0.11273976  0.15395623     0.07900
C19         C  0.08381938  0.13156783  0.13183079    -0.55600
C20         C  0.10066486  0.15516422  0.15269707     0.08500
H21         H  0.12501312  0.13340793  0.06358702     0.13000
H22         H  0.15346094  0.17267760  0.16292082    -0.01200
H23         H  0.12760909  0.06125578  0.13482020     0.13300
H24         H  0.05786485  0.12877034  0.13178149     0.13100
N25         N  0.05191287  0.49449263  0.44841252    -0.07700
N26         N  0.07485898  0.48251624  0.43017347    -0.59800
N27         N  0.51025962  0.06992374  0.45387318    -0.07400
N28         N  0.50179452  0.10267327  0.44840883    -0.62000
N29         N  0.03741029  0.07137445  0.47132231    -0.07000
N30         N  0.04788932  0.10447269  0.47782153    -0.59800
N31         N  0.02468217  0.49216188  0.43146577    -0.06700
N32         N  0.02838018  0.47819106  0.40212882    -0.62300
C33         C  0.05957062  0.47199632  0.40167166     0.94500
C34         C  0.02527945  0.12367373  0.46400292     0.94200
N35         N  0.42426781  0.03003473  0.48646037    -0.07900
N36         N  0.40579294  0.05410210  0.99986415    -0.60400
N37         N  0.45008568  0.47152403  0.43583566    -0.06000
N38         N  0.44030611  0.45489001  0.40794506    -0.61700
N39         N  0.43225031  0.46024688  0.46013776    -0.07900
N40         N  0.40982038  0.43604430  0.44904904    -0.60700
N41         N  0.43994881  0.04358141  0.46173014    -0.05700
N42         N  0.43160823  0.07597942  0.45574272    -0.61700
Mn43       Mn  0.48085021  0.01941745  0.44314967     1.18400
C44         C  0.40939752  0.08121693  0.47830146     0.96500
C45         C  0.41490085  0.43277435  0.41614336     0.97200
N46         N  0.06302600  0.05410748  0.04345694    -0.07900
N47         N  0.08453387  0.07956940  0.05339372    -0.64300
N48         N  0.05297408  0.46491155  0.04426045    -0.06700
N49         N  0.06000088  0.43258101  0.05253234    -0.64900
N50         N  0.07002500  0.47620860  0.52177799    -0.07500
N51         N  0.08975560  0.45178469  0.51326669    -0.64500
N52         N  0.04774485  0.04090784  0.06881338    -0.06300
N53         N  0.05917071  0.05706252  0.09652770    -0.65200
Mn54       Mn  0.05671622  0.02568128  0.49258835     1.10700
C55         C  0.08212680  0.08166716  0.08669542     0.97800
C56         C  0.08233018  0.42460315  0.03086807     0.97800
N57         N  0.45545717  0.44126192  0.03187527    -0.07500
N58         N  0.44403227  0.40803562  0.02748668    -0.62800
N59         N  0.47401808  0.01184630  0.07547374    -0.06800
N60         N  0.46895475  0.02020901  0.10626660    -0.59600
N61         N  0.44693787  0.00900480  0.05826461    -0.08100
N62         N  0.42304012  0.01626447  0.07722384    -0.62400
N63         N  0.48190811  0.44278680  0.05019688    -0.07100
N64         N  0.98911882  0.41045933  0.05818199    -0.59600
Mn65       Mn  0.43785614  0.48770802  0.00872364     1.20200
Mn66       Mn  0.01274338  0.49237428  0.06025794     1.10100
Cl67       Cl  0.49844137  0.00414471  0.50062114    -0.87600
C68         C  0.46557522  0.38907329  0.04364729     0.94800
C69         C  0.43721650  0.02301154  0.10691893     0.94600
N70         N  0.30901228  0.21817868  0.52716000    -0.07700
N71         N  0.32792770  0.19147469  0.52621778    -0.59800
N72         N  0.28781431  0.29098738  0.06393087    -0.07400
N73         N  0.30095556  0.31061453  0.08832348    -0.62000
N74         N  0.27324196  0.26196392  0.07576655    -0.07000
N75         N  0.27717746  0.26142043  0.10788313    -0.59800
N76         N  0.32313857  0.24664401  0.51397015    -0.06700
N77         N  0.35183916  0.23979071  0.50383131    -0.62300
C78         C  0.35429570  0.20551181  0.51211623     0.94500
C79         C  0.29512459  0.29140453  0.11550366     0.94200
N80         N  0.25163153  0.35104954  0.99283793    -0.07900
N81         N  0.23922605  0.38195563  0.00011844    -0.60400
N82         N  0.31415736  0.30888552  0.45911601    -0.06000
N83         N  0.34153192  0.32121966  0.44591458    -0.61700
N84         N  0.28987004  0.31495498  0.43925479    -0.07900
N85         N  0.30058335  0.33146378  0.41232797    -0.60700
N86         N  0.27775949  0.34744934  0.01037028    -0.05700
N87         N  0.28459814  0.37561836  0.02908933    -0.61700
Mn88       Mn  0.30143581  0.29819262  0.01155725     1.18400
C89         C  0.26059235  0.39709393  0.02262431     0.96500
C90         C  0.33322479  0.33510520  0.41617536     0.97200
N91         N  0.20986850  0.20729296  0.06510527    -0.07900
N92         N  0.19902877  0.19191093  0.09265379    -0.64300
N93         N  0.22500257  0.17273196  0.48990630    -0.06700
N94         N  0.21929703  0.14355852  0.47197911    -0.64900
N95         N  0.24769542  0.16860050  0.51191939    -0.07500
N96         N  0.25824869  0.13600485  0.50941871    -0.64500
N97         N  0.18647512  0.20863897  0.04306203    -0.06300
N98         N  0.15961224  0.19419773  0.05565945    -0.65200
Mn99       Mn  0.26063056  0.21438855  0.04582922     1.10700
C100        C  0.16692924  0.18433480  0.08728476     0.97800
C101        C  0.24000473  0.12067824  0.48439925     0.97800
N102        N  0.22734249  0.26172872  0.42814882    -0.07500
N103        N  0.23101609  0.26175863  0.39626253    -0.62800
N104        N  0.17590693  0.26907325  0.98779872    -0.06800
N105        N  0.14690140  0.27269384  0.99849360    -0.59600
N106        N  0.18882970  0.29964465  0.97734926    -0.08100
N107        N  0.16828653  0.32474855  0.98080668    -0.62400
N108        N  0.21276010  0.23157295  0.43735158    -0.07100
N109        N  0.20584952  0.21112641  0.41105906    -0.59600
Mn110      Mn  0.23887731  0.30779140  0.45973303     1.20200
Mn111      Mn  0.19930633  0.22078928  0.48953452     1.10100
Cl112      Cl  0.24981361  0.25992121  0.00106282    -0.87600
C113        C  0.21766263  0.23022216  0.38551370     0.94800
C114        C  0.14253825  0.30726366  0.99360771     0.94600
N115        N  0.44207272  0.24676458  0.20963234    -0.07700
N116        N  0.41405194  0.23283187  0.19953301    -0.59800
N117        N  0.49892198  0.30537718  0.19094560    -0.07400
N118        N  0.99644085  0.32966098  0.16845608    -0.62000
N119        N  0.50356999  0.27400854  0.17709541    -0.07000
N120        N  0.00367313  0.27664843  0.14518124    -0.59800
N121        N  0.43844273  0.27838172  0.22323054    -0.06700
N122        N  0.40847804  0.28695412  0.22140429    -0.62300
C123        C  0.39348996  0.25845188  0.20617137     0.94500
C124        C  0.99922266  0.31133346  0.13996188     0.94200
N125        N  0.03740460  0.33019676  0.28275401    -0.07900
N126        N  0.06831296  0.33736041  0.27977131    -0.60400
N127        N  0.45515346  0.32059747  0.28866271    -0.06000
N128        N  0.42840604  0.33680581  0.29577606    -0.61700
N129        N  0.46972026  0.31070175  0.31560341    -0.07900
N130        N  0.45265139  0.32010187  0.34167594    -0.60700
N131        N  0.02169829  0.34109949  0.25674462    -0.05700
N132        N  0.04167080  0.35598249  0.23584407    -0.61700
Mn133      Mn  0.47820250  0.31229305  0.23987001     1.18400
C134        C  0.07046605  0.35362333  0.25063131     0.96500
C135        C  0.42634712  0.33640457  0.32919530     0.97200
N136        N  0.03771482  0.20149327  0.19377054    -0.07900
N137        N  0.05383172  0.19406362  0.16676212    -0.64300
N138        N  0.48278744  0.16822213  0.25224523    -0.06700
N139        N  0.45880647  0.15624691  0.27054543    -0.64900
N140        N  0.47169572  0.17650265  0.22320768    -0.07500
N141        N  0.44085727  0.16885501  0.22098876    -0.64500
N142        N  0.05216194  0.18914721  0.21985127    -0.06300
N143        N  0.07882308  0.17343159  0.21059470    -0.65200
Mn144      Mn  0.48939180  0.22449800  0.20002800     1.10700
C145        C  0.08039399  0.17719827  0.17701781     0.97800
C146        C  0.43249604  0.15666993  0.25046110     0.97800
N147        N  0.00070510  0.23701454  0.33209448    -0.07500
N148        N  0.49591027  0.23588580  0.36336915    -0.62800
N149        N  0.06762065  0.22754693  0.28861724    -0.06800
N150        N  0.09646064  0.21578063  0.28969873    -0.59600
N151        N  0.06601588  0.25815208  0.30490734    -0.08100
N152        N  0.09468119  0.26717097  0.31802157    -0.62400
N153        N  0.00571111  0.20494271  0.31977043    -0.07100
N154        N  0.50476998  0.18164953  0.34329208    -0.59600
Mn155      Mn  0.01854423  0.28486748  0.31011097     1.20200
Mn156      Mn  0.02733341  0.19616618  0.27033298     1.10100
Cl157      Cl  0.50382296  0.25459291  0.25502217    -0.87600
C158        C  0.49828074  0.20144066  0.37033002     0.94800
C159        C  0.11325922  0.24027381  0.30807812     0.94600
N160        N  0.29093408  0.44510280  0.30476889    -0.07700
N161        N  0.30170144  0.41640081  0.31989358    -0.59800
N162        N  0.27047627  0.02194965  0.33645781    -0.07400
N163        N  0.27442699  0.03923511  0.36470467    -0.62000
N164        N  0.24822858  0.99618158  0.33813265    -0.07000
N165        N  0.23623584  0.99540517  0.36795049    -0.59800
N166        N  0.31384709  0.47063195  0.30453226    -0.06700
N167        N  0.34034313  0.45919533  0.31917653    -0.62300
C168        C  0.33294174  0.42498720  0.32879808     0.94500
C169        C  0.25306553  0.02244835  0.38420501     0.94200
N170        N  0.27375400  0.09709333  0.26009036    -0.07900
N171        N  0.28270129  0.13110943  0.25745029    -0.60400
N172        N  0.32646118  0.53212785  0.24924480    -0.06000
N173        N  0.35542370  0.52127535  0.24441715    -0.61700
N174        N  0.31394475  0.54489717  0.22201444    -0.07900
N175        N  0.33431287  0.54279331  0.19814250    -0.60700
N176        N  0.28746567  0.08414208  0.28673203    -0.05700
N177        N  0.30548150  0.10962465  0.30168955    -0.61700
Mn178      Mn  0.29929194  0.02727526  0.29350977     1.18400
C179        C  0.30337122  0.13873448  0.28285730     0.96500
C180        C  0.35970728  0.52831332  0.21253726     0.97200
N181        N  0.19036366  0.97813054  0.28999226    -0.07900
N182        N  0.16878034  0.97234599  0.31224382    -0.64300
N183        N  0.22095714  0.44319608  0.22358872    -0.06700
N184        N  0.20583346  0.42046679  0.20315355    -0.64900
N185        N  0.22693212  0.42793240  0.25190993    -0.07500
N186        N  0.21122635  0.39629700  0.25177150    -0.64500
N187        N  0.17745957  0.99165595  0.26342288    -0.06300
N188        N  0.14655847  0.99488409  0.26703860    -0.65200
Mn189      Mn  0.23942444  0.46140082  0.29650895     1.10700
C190        C  0.14190032  0.98262908  0.29753336     0.97800
C191        C  0.19730240  0.39252060  0.22125662     0.97800
N192        N  0.25608467  0.52497769  0.17355544    -0.07500
N193        N  0.27112031  0.51856826  0.14582805    -0.62800
N194        N  0.18851238  0.05515596  0.20986731    -0.06800
N195        N  0.16215757  0.06358965  0.19338050    -0.59600
N196        N  0.21108949  0.08068034  0.20696049    -0.08100
N197        N  0.19972498  0.10680514  0.18838892    -0.62400
N198        N  0.23158759  0.50237294  0.17620670    -0.07100
N199        N  0.22854062  0.48048889  0.15090393    -0.59600
Mn200      Mn  0.26318778  0.06389818  0.21551779     1.20200
Mn201      Mn  0.20469015  0.49802148  0.21952140     1.10100
Cl202      Cl  0.25128814  0.01295111  0.25585124    -0.87600
C203        C  0.25318488  0.49054034  0.13215359     0.94800
C204        C  0.16850615  0.09640685  0.18039329     0.94600
C205        C  0.37383645  0.15979999  0.23617823    -0.03400
C206        C  0.39834771  0.15705007  0.26081899     0.06200
C207        C  0.38972080  0.16017466  0.29438507    -0.03600
C208        C  0.35718914  0.16192222  0.30251157    -0.03600
C209        C  0.33319739  0.16112301  0.27770576     0.06400
C210        C  0.34252609  0.16642383  0.24509466    -0.03800
Br211      Br  0.31244212  0.18202157  0.21217598    -0.02300
Br212      Br  0.38015842  0.14983996  0.18982445    -0.02400
Br213      Br  0.34444599  0.16445067  0.34769566    -0.02300
Br214      Br  0.42085231  0.16032294  0.33010969    -0.02300
C215        C  0.15505333  0.34356276  0.22490012    -0.03400
C216        C  0.16358104  0.37911899  0.21765432     0.06200
C217        C  0.13891440  0.40359597  0.21207154    -0.03600
C218        C  0.10774981  0.39459599  0.22176256    -0.03600
C219        C  0.10064595  0.36063583  0.23405719     0.06400
C220        C  0.12308954  0.33397412  0.23174845    -0.03800
Br221      Br  0.10945784  0.28444224  0.23517671    -0.02300
Br222      Br  0.18710748  0.30846053  0.22478790    -0.02400
Br223      Br  0.07537922  0.42972988  0.22065041    -0.02300
Br224      Br  0.14567264  0.44991273  0.19200683    -0.02300
C225        C  0.24994701  0.40923465  0.07975528    -0.03400
C226        C  0.25304777  0.42302180  0.04805886     0.06200
C227        C  0.25866736  0.45996189  0.04381855    -0.03600
C228        C  0.26107348  0.48311499  0.07162844    -0.03600
C229        C  0.26025306  0.46864640  0.10334711     0.06400
C230        C  0.25662555  0.43133968  0.10708802    -0.03800
Br231      Br  0.26198124  0.40979132  0.14958362    -0.02300
Br232      Br  0.23646806  0.35959735  0.08572805    -0.02400
Br233      Br  0.26453614  0.53410928  0.06642426    -0.02300
Br234      Br  0.26202844  0.47836874  0.00018411    -0.02300
C235        C  0.27357917  0.07285676  0.46190964    -0.03400
C236        C  0.24320259  0.08492298  0.46935417     0.06200
C237        C  0.21549710  0.06655013  0.45570513    -0.03600
C238        C  0.21821201  0.04183808  0.42963300    -0.03600
C239        C  0.24878350  0.03452772  0.41839589     0.06400
C240        C  0.27619202  0.04691255  0.43690063    -0.03800
Br241      Br  0.31763851  0.02974582  0.42656240    -0.02300
Br242      Br  0.31200974  0.09444037  0.48238918    -0.02400
Br243      Br  0.18004951  0.02185743  0.40722636    -0.02300
Br244      Br  0.17360579  0.07681888  0.47133195    -0.02300
C245        C  0.16920813  0.26331016  0.32157368    -0.03400
C246        C  0.14628175  0.23450411  0.31930689     0.06200
C247        C  0.15576100  0.19949356  0.32701655    -0.03600
C248        C  0.18501282  0.19558206  0.34374182    -0.03600
C249        C  0.20462806  0.22600738  0.35161332     0.06400
C250        C  0.19975064  0.25762768  0.33440161    -0.03800
Br251      Br  0.23402625  0.29366348  0.33014688    -0.02300
Br252      Br  0.15906944  0.31084093  0.30928970    -0.02400
Br253      Br  0.19767342  0.14945035  0.35818445    -0.02300
Br254      Br  0.12880426  0.15668251  0.31848965    -0.02300
C255        C  0.31530369  0.28929491  0.17334025    -0.03400
C256        C  0.32101428  0.28774805  0.13946810     0.06200
C257        C  0.35004795  0.27520655  0.12777683    -0.03600
C258        C  0.37296386  0.26372759  0.14973944    -0.03600
C259        C  0.36697122  0.26443193  0.18375739     0.06400
C260        C  0.33855551  0.27793197  0.19566191    -0.03800
Br261      Br  0.33174211  0.28088391  0.24238088    -0.02300
Br262      Br  0.27600826  0.30746425  0.18877934    -0.02400
Br263      Br  0.41357280  0.25009279  0.13197992    -0.02300
Br264      Br  0.35930517  0.27192691  0.08143520    -0.02300
C265        C  0.39483678  0.16452964  0.52513437    -0.03400
C266        C  0.37852501  0.18300452  0.50100304     0.06200
C267        C  0.37595801  0.17039718  0.46832328    -0.03600
C268        C  0.38684542  0.13684394  0.46061243    -0.03600
C269        C  0.39956550  0.11642255  0.48590610     0.06400
C270        C  0.40535712  0.13086108  0.51777831    -0.03800
Br271      Br  0.42903458  0.10785784  0.05300326    -0.02300
Br272      Br  0.40045231  0.18437955  0.56884273    -0.02400
Br273      Br  0.38130016  0.11751466  0.41637798    -0.02300
Br274      Br  0.35307301  0.19639257  0.43556890    -0.02300
C275        C  0.08381133  0.37392842  0.49726565    -0.03400
C276        C  0.09006540  0.38829695  0.02435631     0.06200
C277        C  0.10518176  0.36875380  0.04878796    -0.03600
C278        C  0.11820839  0.33661736  0.03975055    -0.03600
C279        C  0.11619968  0.32550465  0.00658800     0.06400
C280        C  0.09579372  0.34121496  0.98416337    -0.03800
Br281      Br  0.08900266  0.31990494  0.44588550    -0.02300
Br282      Br  0.05683720  0.39695133  0.46577637    -0.00600
Br283      Br  0.14191169  0.31012033  0.07143087    -0.02300
Br284      Br  0.11109158  0.38750530  0.09316317    -0.02300
C285        C  0.08620551  0.44086851  0.35685882    -0.03400
C286        C  0.07562148  0.47246799  0.37065322     0.06200
C287        C  0.07603251  0.00701914  0.34936890    -0.03600
C288        C  0.09604385  0.00877271  0.32247885    -0.03600
C289        C  0.11158134  0.97811608  0.31308063     0.06400
C290        C  0.10409443  0.44270502  0.32836119    -0.03800
Br291      Br  0.12177433  0.40019383  0.31060633    -0.02300
Br292      Br  0.07828894  0.39589263  0.37820477    -0.02400
Br293      Br  0.10631405  0.05414350  0.30240493    -0.02300
Br294      Br  0.05722020  0.05001060  0.36525064    -0.02300
C295        C  0.41326697  0.54214541  0.19366778    -0.03400
C296        C  0.38657890  0.51825134  0.19379159     0.06200
C297        C  0.37736362  0.99184700  0.16786853    -0.03600
C298        C  0.39628570  0.99207030  0.14025543    -0.03600
C299        C  0.42026420  0.01971660  0.13729855     0.06400
C300        C  0.42924132  0.04242285  0.16429485    -0.03800
Br301      Br  0.46394856  0.07819447  0.16177233    -0.02300
Br302      Br  0.42699796  0.56686342  0.23374749    -0.02400
Br303      Br  0.38921623  0.95399423  0.10764013    -0.02300
Br304      Br  0.34547568  0.45814075  0.17063035    -0.02300
C305        C  0.48747657  0.33156214  0.05045779    -0.03400
C306        C  0.46045309  0.35189614  0.05249579     0.06200
C307        C  0.44044541  0.34749977  0.07925384    -0.03600
C308        C  0.95356109  0.33605014  0.10898020    -0.03600
C309        C  0.98465945  0.32259621  0.10922885     0.06400
C310        C  0.50018997  0.31706844  0.07906520    -0.03800
Br311      Br  0.54017021  0.29375696  0.07770311    -0.02300
Br312      Br  0.50902590  0.32898223  0.00946639    -0.02400
Br313      Br  0.92903161  0.34124736  0.14840081    -0.02300
Br314      Br  0.89805474  0.36507412  0.07679306    -0.02300
C315        C  0.05188810  0.17374873  0.43906241    -0.03400
C316        C  0.02814051  0.16217871  0.46060467     0.06200
C317        C  0.49888468  0.17835037  0.45913185    -0.03600
C318        C  0.48823727  0.19187812  0.42929991    -0.03600
C319        C  0.50925066  0.19238127  0.40288410     0.06400
C320        C  0.54217126  0.18787593  0.40873404    -0.03800
Br321      Br  0.07367859  0.20132084  0.37725816    -0.02300
Br322      Br  0.09581620  0.16319041  0.44750459    -0.02400
Br323      Br  0.44530766  0.20720177  0.42412925    -0.02300
Br324      Br  0.47221264  0.17461351  0.49649530    -0.02300
C325        C  0.40058698  0.35656253  0.84880847     0.84900
C326        C  0.41747570  0.38422003  0.87236727    -0.55300
C327        C  0.39830910  0.40409558  0.89143622     0.07800
C328        C  0.36142846  0.39456781  0.88412156     0.18800
C329        C  0.37780475  0.33400270  0.87160755    -0.56100
C330        C  0.35666686  0.35294722  0.89027792     0.07900
C331        C  0.37723679  0.37922102  0.82815032    -0.55600
C332        C  0.35648414  0.39963764  0.84559664     0.08500
H333        H  0.44339813  0.38761530  0.87405608     0.13000
H334        H  0.34553419  0.41084491  0.89909633    -0.01200
H335        H  0.37854906  0.30515444  0.87282460     0.13300
H336        H  0.37766386  0.37959433  0.80148837     0.13100
C337        C  0.10336126  0.10655457  0.60878482     0.84900
C338        C  0.12478196  0.13332195  0.58973056    -0.55300
C339        C  0.14402044  0.15750995  0.60770756     0.07800
C340        C  0.13851228  0.15193257  0.64673628     0.18800
C341        C  0.12675874  0.08866142  0.63290062    -0.56100
C342        C  0.14587819  0.11123375  0.65334308     0.07900
C343        C  0.08367037  0.12993154  0.63109651    -0.55600
C344        C  0.10033415  0.15342068  0.65218593     0.08500
H345        H  0.12506619  0.13264466  0.56303811     0.13000
H346        H  0.15301643  0.17113901  0.66274158    -0.01200
H347        H  0.12778838  0.05980893  0.63377514     0.13300
H348        H  0.05771527  0.12705498  0.63089543     0.13100
N349        N  0.05031906  0.49517224  0.94633059    -0.07700
N350        N  0.07298339  0.48285650  0.92792889    -0.59800
N351        N  0.51138241  0.07042814  0.95551379    -0.07400
N352        N  0.50309062  0.10322102  0.94993782    -0.62000
N353        N  0.03864882  0.07181384  0.97267896    -0.07000
N354        N  0.04931201  0.10490708  0.97893590    -0.59800
N355        N  0.02297098  0.49311221  0.92961003    -0.06700
N356        N  0.02629290  0.47904216  0.90023632    -0.62300
C357        C  0.05740155  0.47246947  0.89954689     0.94500
C358        C  0.02682910  0.12416158  0.96494254     0.94200
N359        N  0.42536507  0.03095691  0.98816699    -0.07900
N360        N  0.40453344  0.05300585  0.49807904    -0.60400
N361        N  0.44898432  0.47112078  0.93505805    -0.06000
N362        N  0.43925443  0.45463358  0.90710088    -0.61700
N363        N  0.43156481  0.45921136  0.95943476    -0.07900
N364        N  0.40942350  0.43470753  0.94832037    -0.60700
N365        N  0.44108818  0.04443774  0.96343797    -0.05700
N366        N  0.43293047  0.07692028  0.95751180    -0.61700
Mn367      Mn  0.48185315  0.02001524  0.94477982     1.18400
C368        C  0.41077336  0.08232505  0.98009240     0.96500
C369        C  0.41429358  0.43195035  0.91533816     0.97200
N370        N  0.06231678  0.05368242  0.54217688    -0.07900
N371        N  0.08420037  0.07874091  0.55223990    -0.64300
N372        N  0.05294360  0.46542286  0.54662362    -0.06700
N373        N  0.06015056  0.43338612  0.55561857    -0.64900
N374        N  0.06945134  0.47583857  0.01904219    -0.07500
N375        N  0.08849446  0.45112306  0.00946598    -0.64500
N376        N  0.04697484  0.04052099  0.56751822    -0.06300
N377        N  0.05874126  0.05623871  0.59529894    -0.65200
Mn378      Mn  0.05782748  0.02610361  0.99401069     1.10700
C379        C  0.08198073  0.08057371  0.58559963     0.97800
C380        C  0.08326750  0.42550919  0.53480891     0.97800
N381        N  0.45511254  0.44282930  0.53291677    -0.07500
N382        N  0.44315472  0.40983066  0.52855445    -0.62800
N383        N  0.47294319  0.01183054  0.57400535    -0.06800
N384        N  0.46783681  0.02031576  0.60477646    -0.59600
N385        N  0.44584094  0.00864351  0.55683403    -0.08100
N386        N  0.42189113  0.01572436  0.57581534    -0.62400
N387        N  0.48140737  0.44395825  0.55148950    -0.07100
N388        N  0.98774970  0.41153574  0.56015821    -0.59600
Mn389      Mn  0.43838871  0.48921131  0.50920662     1.20200
Mn390      Mn  0.01274060  0.49341272  0.56183625     1.10100
Cl391      Cl  0.49944531  0.00444596  0.00214625    -0.87600
C392        C  0.46413685  0.39053012  0.54506163     0.94800
C393        C  0.43604961  0.02280171  0.60547728     0.94600
N394        N  0.30940754  0.21900683  0.02677601    -0.07700
N395        N  0.32865010  0.19256732  0.02613111    -0.59800
N396        N  0.28821027  0.29007049  0.56476964    -0.07400
N397        N  0.30138176  0.30950506  0.58925197    -0.62000
N398        N  0.27339228  0.26110228  0.57643636    -0.07000
N399        N  0.27721996  0.26038435  0.60854477    -0.59800
N400        N  0.32328294  0.24751324  0.01340296    -0.06700
N401        N  0.35211542  0.24093870  0.00341813    -0.62300
C402        C  0.35495219  0.20679169  0.01200254     0.94500
C403        C  0.29536100  0.29019001  0.61630150     0.94200
N404        N  0.25300938  0.35171342  0.49475116    -0.07900
N405        N  0.24162967  0.38319032  0.50201031    -0.60400
N406        N  0.31373903  0.30898386  0.95809861    -0.06000
N407        N  0.34109747  0.32136177  0.94490354    -0.61700
N408        N  0.28949957  0.31441470  0.93797636    -0.07900
N409        N  0.30023321  0.33051946  0.91085387    -0.60700
N410        N  0.27915285  0.34735283  0.51202321    -0.05700
N411        N  0.28699090  0.37544117  0.53053704    -0.61700
Mn412      Mn  0.30194939  0.29762938  0.51255516     1.18400
C413        C  0.26362449  0.39777600  0.52422564     0.96500
C414        C  0.33284204  0.33457538  0.91487971     0.97200
N415        N  0.20967084  0.20690606  0.56568127    -0.07900
N416        N  0.19880638  0.19101144  0.59296591    -0.64300
N417        N  0.22569164  0.17238827  0.98974839    -0.06700
N418        N  0.22016462  0.14289381  0.97225157    -0.64900
N419        N  0.24838897  0.16875729  0.01188026    -0.07500
N420        N  0.25913348  0.13620857  0.00987827    -0.64500
N421        N  0.18628074  0.20871601  0.54372044    -0.06300
N422        N  0.15938664  0.19409712  0.55608031    -0.65200
Mn423      Mn  0.26035791  0.21382101  0.54627101     1.10700
C424        C  0.16669531  0.18362670  0.58750512     0.97800
C425        C  0.24098269  0.12037375  0.98504998     0.97800
N426        N  0.22750643  0.26057648  0.92687225    -0.07500
N427        N  0.23097921  0.26078851  0.89497845    -0.62800
N428        N  0.17645668  0.27012226  0.48971245    -0.06800
N429        N  0.14791500  0.27393408  0.50150703    -0.59600
N430        N  0.18955928  0.30080930  0.47970452    -0.08100
N431        N  0.16957167  0.32621347  0.48458016    -0.62400
N432        N  0.21293597  0.23042625  0.93610965    -0.07100
N433        N  0.20579048  0.21015276  0.90972426    -0.59600
Mn434      Mn  0.23839232  0.30684411  0.95809513     1.20200
Mn435      Mn  0.19944790  0.22008328  0.98859852     1.10100
Cl436      Cl  0.24998594  0.26006041  0.50203025    -0.87600
C437        C  0.21752109  0.22937456  0.88416524     0.94800
C438        C  0.14404114  0.30875390  0.49782884     0.94600
N439        N  0.44137870  0.24398827  0.70992765    -0.07700
N440        N  0.41331997  0.22972142  0.70040200    -0.59800
N441        N  0.49752177  0.30259694  0.68944307    -0.07400
N442        N  0.99509798  0.32660491  0.66646226    -0.62000
N443        N  0.50188292  0.27102928  0.67580627    -0.07000
N444        N  0.00137966  0.27318571  0.64356332    -0.59800
N445        N  0.43777000  0.27580534  0.72309761    -0.06700
N446        N  0.40774410  0.28413000  0.72156259    -0.62300
C447        C  0.39272645  0.25531351  0.70688678     0.94500
C448        C  0.99696903  0.30783794  0.63809229     0.94200
N449        N  0.03714317  0.32980013  0.78063623    -0.07900
N450        N  0.06789558  0.33808100  0.77806777    -0.60400
N451        N  0.45490224  0.31944403  0.78762395    -0.06000
N452        N  0.42812808  0.33563636  0.79471148    -0.61700
N453        N  0.46971539  0.31004906  0.81461579    -0.07900
N454        N  0.45276842  0.31979315  0.84067911    -0.60700
N455        N  0.02138937  0.33998392  0.75439178    -0.05700
N456        N  0.04117156  0.35547294  0.73362662    -0.61700
Mn457      Mn  0.47747913  0.31034960  0.73862627     1.18400
C458        C  0.06988394  0.35427979  0.74890708     0.96500
C459        C  0.42628381  0.33576687  0.82816166     0.97200
N460        N  0.03691903  0.19913060  0.69310845    -0.07900
N461        N  0.05293202  0.19153445  0.66607809    -0.64300
N462        N  0.48256331  0.16714533  0.75348706    -0.06700
N463        N  0.45851803  0.15642984  0.77234168    -0.64900
N464        N  0.47140390  0.17418865  0.72414992    -0.07500
N465        N  0.44053329  0.16659896  0.72227301    -0.64500
N466        N  0.05173614  0.18747676  0.71925349    -0.06300
N467        N  0.07857158  0.17208557  0.71003841    -0.65200
Mn468      Mn  0.48855608  0.22187683  0.69992836     1.10700
C469        C  0.07980906  0.17528315  0.67638998     0.97800
C470        C  0.43212188  0.15606677  0.75226236     0.97800
N471        N  0.00207092  0.23703107  0.83179297    -0.07500
N472        N  0.49801645  0.23607828  0.86362380    -0.62800
N473        N  0.06805721  0.22752519  0.78678905    -0.06800
N474        N  0.09701046  0.21607620  0.78711299    -0.59600
N475        N  0.06666084  0.25829433  0.80285798    -0.08100
N476        N  0.09560454  0.26764664  0.81516184    -0.62400
N477        N  0.00681517  0.20484908  0.81958147    -0.07100
N478        N  0.50654048  0.18167655  0.84369079    -0.59600
Mn479      Mn  0.01901689  0.28469427  0.80867787     1.20200
Mn480      Mn  0.02751711  0.19545921  0.76991389     1.10100
Cl481      Cl  0.50356424  0.25327067  0.75438214    -0.87600
C482        C  0.50059917  0.20167442  0.87074309     0.94800
C483        C  0.11413281  0.24081373  0.80489511     0.94600
N484        N  0.29123082  0.44582753  0.80452989    -0.07700
N485        N  0.30192575  0.41676885  0.81907951    -0.59800
N486        N  0.27110926  0.02199630  0.83707346    -0.07400
N487        N  0.27513512  0.03933982  0.86530524    -0.62000
N488        N  0.24882260  0.99628579  0.83887494    -0.07000
N489        N  0.23688675  0.99559518  0.86871403    -0.59800
N490        N  0.31420909  0.47129640  0.80464717    -0.06700
N491        N  0.34070012  0.45946327  0.81897537    -0.62300
C492        C  0.33320150  0.42505233  0.82796829     0.94500
C493        C  0.25376147  0.02264009  0.88488690     0.94200
N494        N  0.27425464  0.09648677  0.76003232    -0.07900
N495        N  0.28284543  0.13063940  0.75764713    -0.60400
N496        N  0.32704571  0.53363786  0.75029921    -0.06000
N497        N  0.35587732  0.52250894  0.74528988    -0.61700
N498        N  0.31460840  0.54682923  0.72322863    -0.07900
N499        N  0.33489252  0.54477547  0.69928830    -0.60700
N500        N  0.28784614  0.08364356  0.78678912    -0.05700
N501        N  0.30532742  0.10930085  0.80213824    -0.61700
Mn502      Mn  0.29982835  0.02693114  0.79386614     1.18400
C503        C  0.30305679  0.13847728  0.78344267     0.96500
C504        C  0.36016374  0.52986111  0.71347541     0.97200
N505        N  0.19094133  0.97831509  0.79090903    -0.07900
N506        N  0.16946421  0.97332179  0.81339843    -0.64300
N507        N  0.22130381  0.44491704  0.72361307    -0.06700
N508        N  0.20565892  0.42262801  0.70315910    -0.64900
N509        N  0.22721218  0.42934862  0.75180346    -0.07500
N510        N  0.21107388  0.39797367  0.75156521    -0.64500
N511        N  0.17800430  0.99146946  0.76418340    -0.06300
N512        N  0.14716838  0.99515017  0.76791687    -0.65200
Mn513      Mn  0.23980090  0.46228506  0.79668009     1.10700
C514        C  0.14259445  0.98366709  0.79868728     0.97800
C515        C  0.19694597  0.39464964  0.72113239     0.97800
N516        N  0.25701764  0.52723806  0.67453431    -0.07500
N517        N  0.27263988  0.52065122  0.64719640    -0.62800
N518        N  0.18875724  0.05412004  0.70971944    -0.06800
N519        N  0.16240128  0.06225642  0.69303018    -0.59600
N520        N  0.21126756  0.07970322  0.70668087    -0.08100
N521        N  0.19982124  0.10557908  0.68783044    -0.62400
N522        N  0.23243140  0.50467027  0.67677309    -0.07100
N523        N  0.22989222  0.48270525  0.65147431    -0.59600
Mn524      Mn  0.26348821  0.06297931  0.71549875     1.20200
Mn525      Mn  0.20539051  0.49981309  0.72014645     1.10100
Cl526      Cl  0.25173519  0.01243755  0.75636453    -0.87600
C527        C  0.25496494  0.49260618  0.63319834     0.94800
C528        C  0.16862967  0.09497881  0.67978684     0.94600
C529        C  0.37344328  0.16013820  0.73779187    -0.03400
C530        C  0.39789805  0.15724450  0.76253249     0.06200
C531        C  0.38909735  0.16064751  0.79604370    -0.03600
C532        C  0.35646488  0.16231063  0.80397267    -0.03600
C533        C  0.33262267  0.16156996  0.77899152     0.06400
C534        C  0.34220943  0.16728090  0.74657902    -0.03800
Br535      Br  0.31225869  0.18314417  0.71365331    -0.02300
Br536      Br  0.37937407  0.14921936  0.69156214    -0.02400
Br537      Br  0.34334097  0.16440095  0.84904385    -0.02300
Br538      Br  0.42010723  0.16113191  0.83188606    -0.02300
C539        C  0.15450798  0.34570517  0.72302414    -0.03400
C540        C  0.16314461  0.38166818  0.71763246     0.06200
C541        C  0.13862797  0.40661617  0.71362724    -0.03600
C542        C  0.10750466  0.39719910  0.72311449    -0.03600
C543        C  0.10011969  0.36232722  0.73292599     0.06400
C544        C  0.12248514  0.33575080  0.72928441    -0.03800
Br545      Br  0.10880054  0.28602486  0.73091602    -0.02300
Br546      Br  0.18649810  0.31059823  0.72113856    -0.02400
Br547      Br  0.07566791  0.43282740  0.72560615    -0.02300
Br548      Br  0.14547599  0.45380710  0.69542130    -0.02300
C549        C  0.25266541  0.41074264  0.58127509    -0.03400
C550        C  0.25712804  0.42426480  0.54962846     0.06200
C551        C  0.26462776  0.46095704  0.54552482    -0.03600
C552        C  0.26642739  0.48429978  0.57325276    -0.03600
C553        C  0.26297329  0.47019796  0.60492158     0.06400
C554        C  0.25847041  0.43297186  0.60871012    -0.03800
Br555      Br  0.26203055  0.41160018  0.65146723    -0.02300
Br556      Br  0.23868513  0.36122906  0.58721274    -0.02400
Br557      Br  0.27327439  0.53502941  0.56799859    -0.02300
Br558      Br  0.27199553  0.47878822  0.50219107    -0.02300
C559        C  0.27462339  0.07251732  0.96283596    -0.03400
C560        C  0.24426361  0.08441184  0.97054317     0.06200
C561        C  0.21653955  0.06589567  0.95714881    -0.03600
C562        C  0.21912416  0.04156141  0.93076160    -0.03600
C563        C  0.24964973  0.03455020  0.91917179     0.06400
C564        C  0.27713480  0.04676484  0.93763738    -0.03800
Br565      Br  0.31847404  0.02945026  0.92714483    -0.02300
Br566      Br  0.31308851  0.09408281  0.98325305    -0.02400
Br567      Br  0.18082179  0.02183879  0.90845258    -0.02300
Br568      Br  0.17480640  0.07570642  0.97349627    -0.02300
C569        C  0.17029304  0.26311700  0.81891674    -0.03400
C570        C  0.14706727  0.23462707  0.81632947     0.06200
C571        C  0.15604573  0.19949764  0.82438149    -0.03600
C572        C  0.18477810  0.19528852  0.84196689    -0.03600
C573        C  0.20452150  0.22547115  0.85019795     0.06400
C574        C  0.20042161  0.25711645  0.83270274    -0.03800
Br575      Br  0.23531976  0.29248000  0.82883145    -0.02300
Br576      Br  0.16105760  0.31057978  0.80560791    -0.02400
Br577      Br  0.19671516  0.14899658  0.85668463    -0.02300
Br578      Br  0.12914751  0.15682026  0.81502301    -0.02300
C579        C  0.31521960  0.28725522  0.67403652    -0.03400
C580        C  0.32114732  0.28611259  0.64021768     0.06200
C581        C  0.35001438  0.27314427  0.62849347    -0.03600
C582        C  0.37232532  0.26031244  0.65040350    -0.03600
C583        C  0.36624081  0.26103780  0.68442561     0.06400
C584        C  0.33811690  0.27519177  0.69632895    -0.03800
Br585      Br  0.33127868  0.27818100  0.74305915    -0.02300
Br586      Br  0.27617972  0.30604656  0.68946547    -0.02400
Br587      Br  0.41240763  0.24504918  0.63260733    -0.02300
Br588      Br  0.36002884  0.27164361  0.58221032    -0.02300
C589        C  0.39578320  0.16635345  0.02589801    -0.03400
C590        C  0.37968361  0.18454613  0.00140637     0.06200
C591        C  0.37766907  0.17163128  0.96881761    -0.03600
C592        C  0.38840071  0.13785304  0.96163442    -0.03600
C593        C  0.40070405  0.11760551  0.98731737     0.06400
C594        C  0.40616623  0.13245601  0.01909492    -0.03800
Br595      Br  0.42907459  0.10614196  0.55098929    -0.02300
Br596      Br  0.40155405  0.18714503  0.06924465    -0.02400
Br597      Br  0.38320398  0.11807760  0.91751705    -0.02300
Br598      Br  0.35604177  0.19783868  0.93532331    -0.02300
C599        C  0.08249164  0.37309378  0.99306602    -0.03400
C600        C  0.09116194  0.38927304  0.52856784     0.06200
C601        C  0.10645024  0.37006388  0.55311398    -0.03600
C602        C  0.12004285  0.33823949  0.54413740    -0.03600
C603        C  0.11777953  0.32678635  0.51108391     0.06400
C604        C  0.09696786  0.34190721  0.48872289    -0.03800
Br605      Br  0.08835913  0.32007406  0.94091924    -0.02300
Br606      Br  0.05428918  0.39574487  0.96254264    -0.00600
Br607      Br  0.14476328  0.31265917  0.57564433    -0.02300
Br608      Br  0.11185717  0.38897868  0.59747958    -0.02300
C609        C  0.08477003  0.44106580  0.85539157    -0.03400
C610        C  0.07336526  0.47260296  0.86848132     0.06200
C611        C  0.07533428  0.00670904  0.84948068    -0.03600
C612        C  0.09576065  0.00883578  0.82291804    -0.03600
C613        C  0.11220416  0.97863698  0.81406626     0.06400
C614        C  0.10378423  0.44293370  0.82769127    -0.03800
Br615      Br  0.12205591  0.40038580  0.81068564    -0.02300
Br616      Br  0.07636049  0.39615718  0.87664446    -0.02400
Br617      Br  0.10523282  0.05422367  0.80258808    -0.02300
Br618      Br  0.05372781  0.04867696  0.86336386    -0.02300
C619        C  0.41369109  0.54256043  0.69430318    -0.03400
C620        C  0.38665346  0.51924485  0.69446121     0.06200
C621        C  0.37755993  0.99001832  0.66733308    -0.03600
C622        C  0.39601537  0.99093028  0.63934281    -0.03600
C623        C  0.41919694  0.01933578  0.63596183     0.06400
C624        C  0.42781273  0.04245932  0.66276061    -0.03800
Br625      Br  0.46093649  0.07991534  0.65932534    -0.02300
Br626      Br  0.42847814  0.56600795  0.73463452    -0.02400
Br627      Br  0.38939756  0.95278289  0.60674655    -0.02300
Br628      Br  0.34448555  0.46011838  0.67129814    -0.02300
C629        C  0.48518339  0.33217607  0.54988899    -0.03400
C630        C  0.45867383  0.35313767  0.55300258     0.06200
C631        C  0.43829514  0.34762557  0.57931524    -0.03600
C632        C  0.95101253  0.33339275  0.60838590    -0.03600
C633        C  0.98178532  0.31918656  0.60770883     0.06400
C634        C  0.49708757  0.31510520  0.57754622    -0.03800
Br635      Br  0.53644754  0.29075779  0.57506980    -0.02300
Br636      Br  0.50728360  0.33220631  0.50910811    -0.02400
Br637      Br  0.92674872  0.33667460  0.64816069    -0.02300
Br638      Br  0.89651122  0.36671775  0.57848316    -0.02300
C639        C  0.05385446  0.17337835  0.93909187    -0.03400
C640        C  0.03007352  0.16258337  0.96090901     0.06200
C641        C  0.50083517  0.17911176  0.95975043    -0.03600
C642        C  0.49044705  0.19254189  0.92976933    -0.03600
C643        C  0.51147326  0.19249897  0.90334721     0.06400
C644        C  0.54425601  0.18714782  0.90917411    -0.03800
Br645      Br  0.07564840  0.19790776  0.87617675    -0.02300
Br646      Br  0.09771621  0.16279977  0.94791251    -0.02400
Br647      Br  0.44761844  0.20808012  0.92432748    -0.02300
Br648      Br  0.47384722  0.17584165  0.99697067    -0.02300
C649        C  0.39951640  0.85541278  0.34749991     0.84900
C650        C  0.41687067  0.88333446  0.37042208    -0.55300
C651        C  0.39808964  0.90333888  0.38972353     0.07800
C652        C  0.36112056  0.89382845  0.38320990     0.18800
C653        C  0.37730978  0.83312297  0.37102383    -0.56100
C654        C  0.35670883  0.85235081  0.39006044     0.07900
C655        C  0.37577429  0.87768668  0.32703287    -0.55600
C656        C  0.35534964  0.89832654  0.34462425     0.08500
H657        H  0.44281558  0.88657365  0.37174962     0.13000
H658        H  0.34553501  0.91027303  0.39838852    -0.01200
H659        H  0.37812605  0.80430294  0.37254462     0.13300
H660        H  0.37570871  0.87765963  0.30034622     0.13100
C661        C  0.10396032  0.60672940  0.10903551     0.84900
C662        C  0.12530073  0.63326093  0.08958214    -0.55300
C663        C  0.14471674  0.65759918  0.10720039     0.07800
C664        C  0.13949406  0.65228855  0.14638119     0.18800
C665        C  0.12743753  0.58893287  0.13309096    -0.56100
C666        C  0.14680047  0.61153425  0.15323043     0.07900
C667        C  0.08449261  0.63036255  0.13130744    -0.55600
C668        C  0.10132846  0.65397216  0.15211550     0.08500
H669        H  0.12534130  0.63234454  0.06288476     0.13000
H670        H  0.15415634  0.67157109  0.16216248    -0.01200
H671        H  0.12834789  0.56007848  0.13413930     0.13300
H672        H  0.05853625  0.62757464  0.13130010     0.13100
N673        N  0.05021111  0.99738902  0.44421444    -0.07700
N674        N  0.07272956  0.98567800  0.42533698    -0.59800
N675        N  0.51474889  0.56985986  0.45467263    -0.07400
N676        N  0.50744915  0.60284014  0.44837425    -0.62000
N677        N  0.04141152  0.57053494  0.47271369    -0.07000
N678        N  0.05261206  0.60353670  0.47888747    -0.59800
N679        N  0.02253367  0.99449306  0.42807298    -0.06700
N680        N  0.02546402  0.98057698  0.39861094    -0.62300
C681        C  0.05667931  0.97487936  0.39735619     0.94500
C682        C  0.03096031  0.62330081  0.46394379     0.94200
N683        N  0.42562268  0.53666500  0.48417182    -0.07900
N684        N  0.40296173  0.55803270  0.99260082    -0.60400
N685        N  0.44942436  0.96926456  0.43378342    -0.06000
N686        N  0.43866211  0.95418795  0.40553350    -0.61700
N687        N  0.43339735  0.95551301  0.45832901    -0.07900
N688        N  0.41119464  0.93116645  0.44713997    -0.60700
N689        N  0.44283710  0.54823670  0.45972081    -0.05700
N690        N  0.43443301  0.57980578  0.45054164    -0.61700
Mn691      Mn  0.48349073  0.52051012  0.44430076     1.18400
C692        C  0.41048393  0.58639582  0.47086356     0.96500
C693        C  0.41450609  0.93048140  0.41388523     0.97200
N694        N  0.06265246  0.55294411  0.04329584    -0.07900
N695        N  0.08518350  0.57739984  0.05306127    -0.64300
N696        N  0.05913818  0.96676083  0.04280986    -0.06700
N697        N  0.07047635  0.93664596  0.05217132    -0.64900
N698        N  0.07320444  0.97895477  0.51592206    -0.07500
N699        N  0.09532009  0.95744823  0.50698918    -0.64500
N700        N  0.04634597  0.54145668  0.06861168    -0.06300
N701        N  0.05807619  0.55767848  0.09617726    -0.65200
Mn702      Mn  0.05768084  0.52390588  0.49620492     1.10700
C703        C  0.08235374  0.58059176  0.08626761     0.97800
C704        C  0.09413003  0.93203233  0.03106945     0.97800
N705        N  0.46211198  0.93596449  0.03015572    -0.07500
N706        N  0.45246615  0.90233088  0.02449987    -0.62800
N707        N  0.47126565  0.51920623  0.07384368    -0.06800
N708        N  0.46660567  0.52916515  0.10429823    -0.59600
N709        N  0.44412314  0.51695226  0.05663887    -0.08100
N710        N  0.42062386  0.52599214  0.07555378    -0.62400
N711        N  0.48898871  0.93835658  0.04787127    -0.07100
N712        N  0.99813625  0.90618222  0.05437687    -0.59600
Mn713      Mn  0.44118426  0.98241280  0.00969022     1.20200
Mn714      Mn  0.01709447  0.98959403  0.05992947     1.10100
Cl715      Cl  0.49804465  0.50672096  0.50289985    -0.87600
C716        C  0.47540503  0.88404486  0.03927385     0.94800
C717        C  0.43507077  0.53320500  0.10516752     0.94600
N718        N  0.31116244  0.71989430  0.52644221    -0.07700
N719        N  0.33004122  0.69340849  0.52221761    -0.59800
N720        N  0.28800550  0.79110275  0.06613086    -0.07400
N721        N  0.30059732  0.80993569  0.09140651    -0.62000
N722        N  0.27288255  0.76190603  0.07692423    -0.07000
N723        N  0.27531784  0.76081650  0.10914391    -0.59800
N724        N  0.32452507  0.74935077  0.51420970    -0.06700
N725        N  0.35239768  0.74352385  0.50150940    -0.62300
C726        C  0.35543252  0.70878484  0.50716173     0.94500
C727        C  0.29343985  0.79027273  0.11812069     0.94200
N728        N  0.25226785  0.85135600  0.99372495    -0.07900
N729        N  0.23908738  0.88193917  0.00057100    -0.60400
N730        N  0.31483369  0.81040333  0.45959741    -0.06000
N731        N  0.34200915  0.82296424  0.44610196    -0.61700
N732        N  0.29067531  0.81409193  0.43894903    -0.07900
N733        N  0.30109817  0.82915501  0.41127922    -0.60700
N734        N  0.27752766  0.84791288  0.01263785    -0.05700
N735        N  0.28300941  0.87580495  0.03203016    -0.61700
Mn736      Mn  0.30208587  0.79942742  0.01376746     1.18400
C737        C  0.25913370  0.89698639  0.02431755     0.96500
C738        C  0.33352938  0.83444814  0.41543002     0.97200
N739        N  0.21025358  0.70717112  0.06488756    -0.07900
N740        N  0.19932472  0.69146367  0.09223586    -0.64300
N741        N  0.22697291  0.67215099  0.49028144    -0.06700
N742        N  0.22031811  0.64223769  0.47378157    -0.64900
N743        N  0.24985221  0.66849819  0.51221395    -0.07500
N744        N  0.25951405  0.63541500  0.51105417    -0.64500
N745        N  0.18700372  0.70855084  0.04265182    -0.06300
N746        N  0.16015525  0.69361796  0.05494511    -0.65200
Mn747      Mn  0.26118633  0.71455607  0.04617244     1.10700
C748        C  0.16733306  0.68355063  0.08658372     0.97800
C749        C  0.24054189  0.61933246  0.48695403     0.97800
N750        N  0.22958109  0.75974826  0.42713339    -0.07500
N751        N  0.23225336  0.76030429  0.39514347    -0.62800
N752        N  0.17756737  0.76977214  0.98693051    -0.06800
N753        N  0.14889693  0.77462634  0.99805401    -0.59600
N754        N  0.19115245  0.79986007  0.97622920    -0.08100
N755        N  0.17161110  0.82575616  0.97974210    -0.62400
N756        N  0.21452329  0.72989786  0.43638661    -0.07100
N757        N  0.20627954  0.71019220  0.40993773    -0.59600
Mn758      Mn  0.23995281  0.80607686  0.45835708     1.20200
Mn759      Mn  0.20090762  0.71982839  0.48891594     1.10100
Cl760      Cl  0.25094431  0.76035782  0.00177627    -0.87600
C761        C  0.21775522  0.72945106  0.38428546     0.94800
C762        C  0.14563891  0.80941272  0.99287942     0.94600
N763        N  0.44182321  0.74481980  0.20711693    -0.07700
N764        N  0.41394067  0.72944253  0.19855545    -0.59800
N765        N  0.49853819  0.80332901  0.18841992    -0.07400
N766        N  0.99791460  0.82707954  0.16508696    -0.62000
N767        N  0.50452526  0.77179231  0.17575866    -0.07000
N768        N  0.00794911  0.77365104  0.14406818    -0.59800
N769        N  0.43742089  0.77642945  0.22034825    -0.06700
N770        N  0.40691003  0.78335700  0.21983316    -0.62300
C771        C  0.39234174  0.75368078  0.20597130     0.94500
C772        C  0.00415992  0.80811307  0.13758370     0.94200
N773        N  0.03548388  0.82934893  0.28122417    -0.07900
N774        N  0.06626789  0.83802746  0.27946557    -0.60400
N775        N  0.45372855  0.81871299  0.28625018    -0.06000
N776        N  0.42698735  0.83497050  0.29331110    -0.61700
N777        N  0.46814906  0.80872153  0.31330993    -0.07900
N778        N  0.45104329  0.81816263  0.33929873    -0.60700
N779        N  0.02018353  0.83987453  0.25479551    -0.05700
N780        N  0.04033346  0.85593293  0.23474637    -0.61700
Mn781      Mn  0.47703259  0.81070411  0.23730994     1.18400
C782        C  0.06876809  0.85478970  0.25061163     0.96500
C783        C  0.42485046  0.83450582  0.32673286     0.97200
N784        N  0.03785058  0.70006294  0.19251866    -0.07900
N785        N  0.05421837  0.69264857  0.16567449    -0.64300
N786        N  0.48291205  0.66673083  0.25089394    -0.06700
N787        N  0.45873553  0.65480787  0.26896136    -0.64900
N788        N  0.47215672  0.67463026  0.22159255    -0.07500
N789        N  0.44142407  0.66663246  0.21887281    -0.64500
N790        N  0.05223139  0.68806555  0.21875391    -0.06300
N791        N  0.07909210  0.67255030  0.20979023    -0.65200
Mn792      Mn  0.48967270  0.72270167  0.19845928     1.10700
C793        C  0.08087679  0.67612240  0.17620463     0.97800
C794        C  0.43277026  0.65481006  0.24836744     0.97800
N795        N  0.00032870  0.73525151  0.33129293    -0.07500
N796        N  0.49719966  0.73386933  0.36310821    -0.62800
N797        N  0.06690138  0.72741102  0.28691675    -0.06800
N798        N  0.09598696  0.71638647  0.28743717    -0.59600
N799        N  0.06497888  0.75790265  0.30328901    -0.08100
N800        N  0.09367153  0.76752760  0.31603150    -0.62400
N801        N  0.00552508  0.70335475  0.31862242    -0.07100
N802        N  0.50621545  0.68002832  0.34239481    -0.59600
Mn803      Mn  0.01714316  0.78363289  0.30853530     1.20200
Mn804      Mn  0.02701032  0.69518495  0.26895551     1.10100
Cl805      Cl  0.50299873  0.75320769  0.25349192    -0.87600
C806        C  0.50059343  0.69944734  0.36990680     0.94800
C807        C  0.11260292  0.74111828  0.30568238     0.94600
N808        N  0.28997469  0.94371260  0.30265338    -0.07700
N809        N  0.30069340  0.91490984  0.31766098    -0.59800
N810        N  0.27130329  0.52397564  0.33730921    -0.07400
N811        N  0.27510153  0.54132589  0.36561161    -0.62000
N812        N  0.24898369  0.49820141  0.33899204    -0.07000
N813        N  0.23681987  0.49755657  0.36869400    -0.59800
N814        N  0.31284311  0.96928943  0.30274331    -0.06700
N815        N  0.33925257  0.95782522  0.31754420    -0.62300
C816        C  0.33186190  0.92350973  0.32687344     0.94500
C817        C  0.25349007  0.52462808  0.38496453     0.94200
N818        N  0.27462523  0.59731856  0.25904260    -0.07900
N819        N  0.28275953  0.63133238  0.25508370    -0.60400
N820        N  0.32465935  0.03209836  0.24848910    -0.06000
N821        N  0.35329956  0.02070435  0.24328796    -0.61700
N822        N  0.31225271  0.04566931  0.22156703    -0.07900
N823        N  0.33238089  0.04359456  0.19749889    -0.60700
N824        N  0.28920578  0.58563894  0.28577252    -0.05700
N825        N  0.30747037  0.61199108  0.29921401    -0.61700
Mn826      Mn  0.30065879  0.52855760  0.29425969     1.18400
C827        C  0.30416122  0.64027999  0.27946424     0.96500
C828        C  0.35749088  0.02831206  0.21155978     0.97200
N829        N  0.19071742  0.47794229  0.29129259    -0.07900
N830        N  0.16895449  0.47098937  0.31315945    -0.64300
N831        N  0.21952052  0.94381808  0.22146106    -0.06700
N832        N  0.20394096  0.92138646  0.20104363    -0.64900
N833        N  0.22585372  0.92809092  0.24951559    -0.07500
N834        N  0.21017754  0.89643535  0.24916993    -0.64500
N835        N  0.17771923  0.49108808  0.26456458    -0.06300
N836        N  0.14655623  0.49304057  0.26784188    -0.65200
Mn837      Mn  0.23858271  0.96051826  0.29479807     1.10700
C838        C  0.14184490  0.48029682  0.29824671     0.97800
C839        C  0.19565527  0.89313306  0.21892751     0.97800
N840        N  0.25434589  0.02760331  0.17250499    -0.07500
N841        N  0.26877641  0.02240238  0.14417993    -0.62800
N842        N  0.18966507  0.55405223  0.20943962    -0.06800
N843        N  0.16325424  0.56245836  0.19296928    -0.59600
N844        N  0.21234878  0.57937214  0.20607025    -0.08100
N845        N  0.20098402  0.60535598  0.18728583    -0.62400
N846        N  0.22972097  0.00509535  0.17471766    -0.07100
N847        N  0.22571448  0.98488806  0.14837811    -0.59600
Mn848      Mn  0.26452264  0.56271050  0.21540302     1.20200
Mn849      Mn  0.20359136  0.99904293  0.21837835     1.10100
Cl850      Cl  0.25235533  0.51311567  0.25692019    -0.87600
C851        C  0.25011230  0.99552899  0.12949644     0.94800
C852        C  0.16964133  0.59511173  0.17957136     0.94600
C853        C  0.37467252  0.65394332  0.23254195    -0.03400
C854        C  0.39861512  0.65589421  0.25797118     0.06200
C855        C  0.38947736  0.66581888  0.29025029    -0.03600
C856        C  0.35674770  0.66847009  0.29715277    -0.03600
C857        C  0.33332383  0.66274258  0.27213106     0.06400
C858        C  0.34331671  0.66234988  0.23935625    -0.03800
Br859      Br  0.31437943  0.67327231  0.20361042    -0.02300
Br860      Br  0.38241600  0.63605756  0.18858450    -0.02400
Br861      Br  0.34289456  0.68037108  0.34059162    -0.02300
Br862      Br  0.42028517  0.67581618  0.32558715    -0.02300
C863        C  0.15269778  0.84462483  0.22211378    -0.03400
C864        C  0.16166970  0.88043061  0.21623749     0.06200
C865        C  0.13739531  0.90578542  0.21327349    -0.03600
C866        C  0.10677357  0.89719890  0.22464423    -0.03600
C867        C  0.09922154  0.86251495  0.23486302     0.06400
C868        C  0.12088371  0.83538761  0.23002013    -0.03800
Br869      Br  0.10637459  0.78591288  0.23177383    -0.02300
Br870      Br  0.18369406  0.80866534  0.21794534    -0.02400
Br871      Br  0.07578111  0.93358809  0.22845473    -0.02300
Br872      Br  0.14373693  0.95213356  0.19325710    -0.02300
C873        C  0.24770269  0.91224735  0.08054287    -0.03400
C874        C  0.25106549  0.92425043  0.04826994     0.06200
C875        C  0.25726470  0.96084989  0.04243349    -0.03600
C876        C  0.25920305  0.98549923  0.06919803    -0.03600
C877        C  0.25796845  0.97270997  0.10153697     0.06400
C878        C  0.25472029  0.93566007  0.10681629    -0.03800
Br879      Br  0.26141920  0.91624678  0.15000310    -0.02300
Br880      Br  0.23435763  0.86309118  0.08894007    -0.02400
Br881      Br  0.26367101  0.03603861  0.06174558    -0.02300
Br882      Br  0.26328316  0.97659675  0.99815631    -0.02300
C883        C  0.27288790  0.56963031  0.46628874    -0.03400
C884        C  0.24281451  0.58297446  0.47286213     0.06200
C885        C  0.21510040  0.56652887  0.45738702    -0.03600
C886        C  0.21800793  0.54389616  0.42983871    -0.03600
C887        C  0.24872699  0.53629618  0.41917034     0.06400
C888        C  0.27578562  0.54617725  0.43928142    -0.03800
Br889      Br  0.31710050  0.52882630  0.42889345    -0.02300
Br890      Br  0.31051111  0.58524642  0.49196135    -0.02400
Br891      Br  0.18011750  0.52792651  0.40459473    -0.02300
Br892      Br  0.17306387  0.57703442  0.47250659    -0.02300
C893        C  0.16832594  0.76416368  0.32004070    -0.03400
C894        C  0.14548822  0.73534966  0.31730563     0.06200
C895        C  0.15483212  0.70032816  0.32513732    -0.03600
C896        C  0.18371199  0.69634034  0.34247005    -0.03600
C897        C  0.20323225  0.72667284  0.35088633     0.06400
C898        C  0.19844243  0.75873025  0.33414181    -0.03800
Br899      Br  0.23249308  0.79525377  0.33086353    -0.02300
Br900      Br  0.15866230  0.81117955  0.30570307    -0.02400
Br901      Br  0.19626163  0.64993657  0.35630938    -0.02300
Br902      Br  0.12835937  0.65735173  0.31550187    -0.02300
C903        C  0.31403119  0.78785642  0.17638158    -0.03400
C904        C  0.31879476  0.78442037  0.14236695     0.06200
C905        C  0.34492421  0.76586920  0.13085259    -0.03600
C906        C  0.36395726  0.74802323  0.15266981    -0.03600
C907        C  0.36267563  0.75611364  0.18653293     0.06400
C908        C  0.33724860  0.77566777  0.19856831    -0.03800
Br909      Br  0.33375772  0.78441238  0.24517104    -0.02300
Br910      Br  0.27659490  0.80994044  0.19207615    -0.02400
Br911      Br  0.39120491  0.71271539  0.13444349    -0.02300
Br912      Br  0.35638999  0.76483989  0.08513195    -0.02300
C913        C  0.40094600  0.67302418  0.51393899    -0.03400
C914        C  0.37912972  0.68787544  0.49251211     0.06200
C915        C  0.37197802  0.67277618  0.46123450    -0.03600
C916        C  0.38366937  0.63966252  0.45315881    -0.03600
C917        C  0.40128265  0.62209451  0.47708864     0.06400
C918        C  0.41110508  0.63908779  0.50705630    -0.03800
Br919      Br  0.43493033  0.61406232  0.03975197    -0.02300
Br920      Br  0.41509060  0.69875816  0.55329888    -0.02400
Br921      Br  0.37261765  0.61675907  0.41128804    -0.02300
Br922      Br  0.34304162  0.69541872  0.43161606    -0.02300
C923        C  0.09054716  0.87798744  0.49360945    -0.03400
C924        C  0.10332249  0.89672645  0.02367609     0.06200
C925        C  0.12083044  0.87833150  0.04704469    -0.03600
C926        C  0.12929326  0.84381966  0.03928983    -0.03600
C927        C  0.12182080  0.82968332  0.00768897     0.06400
C928        C  0.10111554  0.84618134  0.98616903    -0.03800
Br929      Br  0.08891829  0.81965759  0.44555220    -0.02300
Br930      Br  0.06044371  0.89911567  0.46397214    -0.00600
Br931      Br  0.15448461  0.81759472  0.06987161    -0.02300
Br932      Br  0.13542951  0.90137289  0.08792566    -0.02300
C933        C  0.08434472  0.94305280  0.35419542    -0.03400
C934        C  0.07201721  0.97454978  0.36616386     0.06200
C935        C  0.07980665  0.50533989  0.35449244    -0.03600
C936        C  0.09793383  0.50712679  0.32613790    -0.03600
C937        C  0.11165231  0.47616351  0.31450122     0.06400
C938        C  0.10422333  0.94478704  0.32727216    -0.03800
Br939      Br  0.12470981  0.90250359  0.31262283    -0.02300
Br940      Br  0.07618650  0.89851729  0.37619786    -0.02400
Br941      Br  0.10811951  0.55268628  0.30644863    -0.02300
Br942      Br  0.06325216  0.54859716  0.37262872    -0.02300
C943        C  0.41126808  0.04040148  0.19268371    -0.03400
C944        C  0.38386395  0.01758954  0.19273819     0.06200
C945        C  0.37994577  0.49414794  0.16761500    -0.03600
C946        C  0.39695098  0.49798390  0.13880815    -0.03600
C947        C  0.41883121  0.52776509  0.13591862     0.06400
C948        C  0.42873784  0.54833648  0.16407595    -0.03800
Br949      Br  0.46192302  0.58592210  0.16205811    -0.02300
Br950      Br  0.42206529  0.07047473  0.23052685    -0.02400
Br951      Br  0.39089461  0.46116415  0.10494623    -0.02300
Br952      Br  0.34085448  0.95849432  0.17076256    -0.02300
C953        C  0.50105975  0.82888789  0.04769919    -0.03400
C954        C  0.47224665  0.84614263  0.04665971     0.06200
C955        C  0.44950139  0.83783677  0.07036145    -0.03600
C956        C  0.95980702  0.82470156  0.10059009    -0.03600
C957        C  0.99252368  0.81794984  0.10527237     0.06400
C958        C  0.51256331  0.81668564  0.07777603    -0.03800
Br959      Br  0.55564237  0.80127998  0.08194732    -0.02300
Br960      Br  0.52478021  0.82537904  0.00836646    -0.02400
Br961      Br  0.92927555  0.81656944  0.13489117    -0.02300
Br962      Br  0.90577884  0.84994488  0.06310703    -0.02300
C963        C  0.05709821  0.67154853  0.43633638    -0.03400
C964        C  0.03475143  0.66180566  0.45986335     0.06200
C965        C  0.50625122  0.67927824  0.45977988    -0.03600
C966        C  0.49382224  0.69142216  0.43003276    -0.03600
C967        C  0.51304037  0.69016276  0.40214496     0.06400
C968        C  0.54603266  0.68449025  0.40626664    -0.03800
Br969      Br  0.07571623  0.69554463  0.37246530    -0.02300
Br970      Br  0.10127249  0.66140163  0.44348618    -0.02400
Br971      Br  0.45103933  0.70778115  0.42742121    -0.02300
Br972      Br  0.48430668  0.68292106  0.50016763    -0.02300
C973        C  0.40076499  0.85594556  0.84853876     0.84900
C974        C  0.41807589  0.88399129  0.87142506    -0.55300
C975        C  0.39925130  0.90395498  0.89076461     0.07800
C976        C  0.36227982  0.89431270  0.88424511     0.18800
C977        C  0.37861439  0.83365534  0.87214879    -0.56100
C978        C  0.35796037  0.85286208  0.89116333     0.07900
C979        C  0.37691209  0.87810445  0.82807688    -0.55600
C980        C  0.35640979  0.89867563  0.84565096     0.08500
H981        H  0.44401571  0.88728738  0.87274485     0.13000
H982        H  0.34664842  0.91072260  0.89940337    -0.01200
H983        H  0.37943697  0.80483612  0.87366281     0.13300
H984        H  0.37678854  0.87799902  0.80138833     0.13100
C985        C  0.10497193  0.60732629  0.61007451     0.84900
C986        C  0.12641412  0.63358112  0.59043991    -0.55300
C987        C  0.14587459  0.65798638  0.60794591     0.07800
C988        C  0.14065561  0.65312782  0.64707098     0.18800
C989        C  0.12839131  0.58970353  0.63429178    -0.56100
C990        C  0.14778728  0.61251773  0.65421660     0.07900
C991        C  0.08561946  0.63124599  0.63211716    -0.55600
C992        C  0.10259539  0.65493359  0.65271161     0.08500
H993        H  0.12647358  0.63245191  0.56374609     0.13000
H994        H  0.15535021  0.67251078  0.66272063    -0.01200
H995        H  0.12922307  0.56086203  0.63563327     0.13300
H996        H  0.05965993  0.62855743  0.63218053     0.13100
N997        N  0.05143083  0.99779025  0.94557176    -0.07700
N998        N  0.07390307  0.98618918  0.92654815    -0.59800
N999        N  0.51285045  0.56991618  0.95428258    -0.07400
N1000       N  0.50513289  0.60297415  0.94886697    -0.62000
N1001       N  0.03959454  0.57088017  0.97179962    -0.07000
N1002       N  0.05062571  0.60384389  0.97843806    -0.59800
N1003       N  0.02368712  0.99479221  0.92955135    -0.06700
N1004       N  0.02649473  0.98080313  0.90011027    -0.62300
C1005       C  0.05772210  0.97530024  0.89864771     0.94500
C1006       C  0.02862229  0.62376755  0.96428075     0.94200
N1007       N  0.42421940  0.53523633  0.98422603    -0.07900
N1008       N  0.40470573  0.55993206  0.49231109    -0.60400
N1009       N  0.45031770  0.96999558  0.93518533    -0.06000
N1010       N  0.43974643  0.95487905  0.90687566    -0.61700
N1011       N  0.43420007  0.95621389  0.95964538    -0.07900
N1012       N  0.41210719  0.93179081  0.94832952    -0.60700
N1013       N  0.44109243  0.54728121  0.95971449    -0.05700
N1014       N  0.43208094  0.57864980  0.95067899    -0.61700
Mn1015     Mn  0.48188159  0.52036639  0.94359830     1.18400
C1016       C  0.40816450  0.58468548  0.97119418     0.96500
C1017       C  0.41559143  0.93109207  0.91507784     0.97200
N1018       N  0.06339822  0.55337347  0.54472194    -0.07900
N1019       N  0.08613852  0.57760875  0.55438370    -0.64300
N1020       N  0.05799990  0.96641810  0.54129745    -0.06700
N1021       N  0.06900282  0.93609730  0.55049391    -0.64900
N1022       N  0.07446837  0.97954524  0.01761326    -0.07500
N1023       N  0.09704202  0.95848361  0.00905222    -0.64500
N1024       N  0.04686558  0.54228051  0.57003471    -0.06300
N1025       N  0.05866895  0.55862378  0.59752389    -0.65200
Mn1026     Mn  0.05654089  0.52398387  0.99439198     1.10700
C1027       C  0.08322455  0.58113650  0.58752802     0.97800
C1028       C  0.09231703  0.93111294  0.52910803     0.97800
N1029       N  0.46133253  0.93560420  0.52885097    -0.07500
N1030       N  0.45175531  0.90189393  0.52352979    -0.62800
N1031       N  0.47127224  0.52070657  0.57450747    -0.06800
N1032       N  0.46630518  0.53037152  0.60496391    -0.59600
N1033       N  0.44428497  0.51859390  0.55703584    -0.08100
N1034       N  0.42058139  0.52736381  0.57580774    -0.62400
N1035       N  0.48815095  0.93826133  0.54662053    -0.07100
N1036       N  0.99741055  0.90601490  0.55327320    -0.59600
Mn1037     Mn  0.44026653  0.98182680  0.50825360     1.20200
Mn1038     Mn  0.01612155  0.98936790  0.55860499     1.10100
Cl1039     Cl  0.49723870  0.50600052  0.00185402    -0.87600
C1040       C  0.47469908  0.88384955  0.53859247     0.94800
C1041       C  0.43475699  0.53434565  0.60558332     0.94600
N1042       N  0.31016802  0.71987507  0.02674163    -0.07700
N1043       N  0.32858390  0.69303598  0.02230824    -0.59800
N1044       N  0.28885635  0.79094829  0.56589324    -0.07400
N1045       N  0.30179154  0.80974086  0.59103555    -0.62000
N1046       N  0.27403747  0.76163749  0.57684801    -0.07000
N1047       N  0.27699289  0.76044333  0.60902790    -0.59800
N1048       N  0.32389576  0.74917282  0.01458086    -0.06700
N1049       N  0.35159909  0.74286231  0.00170243    -0.62300
C1050       C  0.35408608  0.70799243  0.00718322     0.94500
C1051       C  0.29506619  0.78998533  0.61781182     0.94200
N1052       N  0.25176432  0.85056106  0.49334302    -0.07900
N1053       N  0.23809066  0.88076480  0.50050584    -0.60400
N1054       N  0.31538983  0.81084082  0.96029205    -0.06000
N1055       N  0.34274823  0.82322608  0.94702270    -0.61700
N1056       N  0.29141136  0.81491772  0.93952892    -0.07900
N1057       N  0.30211568  0.83004422  0.91200263    -0.60700
N1058       N  0.27721941  0.84748176  0.51205878    -0.05700
N1059       N  0.28240100  0.87534608  0.53153458    -0.61700
Mn1060     Mn  0.30219975  0.79925934  0.51327267     1.18400
C1061       C  0.25806701  0.89604104  0.52418446     0.96500
C1062       C  0.33455027  0.83497626  0.91634865     0.97200
N1063       N  0.21138307  0.70684556  0.56529600    -0.07900
N1064       N  0.20055366  0.69133066  0.59276490    -0.64300
N1065       N  0.22652768  0.67259080  0.98984992    -0.06700
N1066       N  0.21990767  0.64261071  0.97341410    -0.64900
N1067       N  0.24904454  0.66886128  0.01215656    -0.07500
N1068       N  0.25851940  0.63570535  0.01132081    -0.64500
N1069       N  0.18795742  0.70834995  0.54328803    -0.06300
N1070       N  0.16111410  0.69375954  0.55578647    -0.65200
Mn1071     Mn  0.26221147  0.71424525  0.54617022     1.10700
C1072       C  0.16847750  0.68373192  0.58733389     0.97800
C1073       C  0.23982403  0.61963152  0.98701484     0.97800
N1074       N  0.23046585  0.76095515  0.92704569    -0.07500
N1075       N  0.23387667  0.76174394  0.89515354    -0.62800
N1076       N  0.17754085  0.76891452  0.48788822    -0.06800
N1077       N  0.14912532  0.77376269  0.49968220    -0.59600
N1078       N  0.19087932  0.79897020  0.47687879    -0.08100
N1079       N  0.17144291  0.82489196  0.48086725    -0.62400
N1080       N  0.21527456  0.73099582  0.93587499    -0.07100
N1081       N  0.20768503  0.71144753  0.90915092    -0.59600
Mn1082     Mn  0.24051725  0.80703596  0.95847118     1.20200
Mn1083     Mn  0.20070831  0.72047493  0.98824434     1.10100
Cl1084     Cl  0.25121239  0.75981151  0.50177665    -0.87600
C1085       C  0.21968888  0.73093845  0.88385467     0.94800
C1086       C  0.14580630  0.80855488  0.49463590     0.94600
N1087       N  0.44258913  0.74392505  0.70837779    -0.07700
N1088       N  0.41472087  0.72841598  0.69988569    -0.59800
N1089       N  0.49880302  0.80316136  0.68879911    -0.07400
N1090       N  0.99833574  0.82696620  0.66518132    -0.62000
N1091       N  0.50465345  0.77164800  0.67602646    -0.07000
N1092       N  0.00795833  0.77354551  0.64391340    -0.59800
N1093       N  0.43814623  0.77562942  0.72138182    -0.06700
N1094       N  0.40767120  0.78256993  0.72062619    -0.62300
C1095       C  0.39315419  0.75287405  0.70679505     0.94500
C1096       C  0.00418471  0.80807008  0.63751945     0.94200
N1097       N  0.03633490  0.83016948  0.78092417    -0.07900
N1098       N  0.06701527  0.83914484  0.77886107    -0.60400
N1099       N  0.45453737  0.81868670  0.78697096    -0.06000
N1100       N  0.42785611  0.83500943  0.79418661    -0.61700
N1101       N  0.46928190  0.80906773  0.81397863    -0.07900
N1102       N  0.45243811  0.81880817  0.84007746    -0.60700
N1103       N  0.02073404  0.84027042  0.75451192    -0.05700
N1104       N  0.04059449  0.85627605  0.73414664    -0.61700
Mn1105     Mn  0.47754288  0.81046235  0.73785928     1.18400
C1106       C  0.06914813  0.85559207  0.74983134     0.96500
C1107       C  0.42606807  0.83496486  0.82765923     0.97200
N1108       N  0.03935039  0.70072063  0.69310171    -0.07900
N1109       N  0.05561139  0.69337248  0.66621446    -0.64300
N1110       N  0.48483812  0.66653169  0.75167758    -0.06700
N1111       N  0.46088987  0.65401100  0.76972082    -0.64900
N1112       N  0.47390656  0.67423635  0.72241381    -0.07500
N1113       N  0.44330663  0.66556510  0.71969420    -0.64500
N1114       N  0.05396020  0.68897580  0.71932132    -0.06300
N1115       N  0.08088014  0.67369038  0.71030399    -0.65200
Mn1116     Mn  0.49058907  0.72250235  0.69920841     1.10700
C1117       C  0.08241025  0.67716553  0.67671967     0.97800
C1118       C  0.43486984  0.65349212  0.74916244     0.97800
N1119       N  0.00219580  0.73615453  0.83156728    -0.07500
N1120       N  0.49805077  0.73441460  0.86347880    -0.62800
N1121       N  0.06880939  0.72835237  0.78738386    -0.06800
N1122       N  0.09790243  0.71731311  0.78809554    -0.59600
N1123       N  0.06683352  0.75900873  0.80348160    -0.08100
N1124       N  0.09553793  0.76874632  0.81620259    -0.62400
N1125       N  0.00742831  0.70420104  0.81908210    -0.07100
N1126       N  0.50704555  0.68045679  0.84291990    -0.59600
Mn1127     Mn  0.01869469  0.78447626  0.80865172     1.20200
Mn1128     Mn  0.02899212  0.69587439  0.76956003     1.10100
Cl1129     Cl  0.50412253  0.75336959  0.75407441    -0.87600
C1130       C  0.50096409  0.69991534  0.87027700     0.94800
C1131       C  0.11451368  0.74221657  0.80614714     0.94600
N1132       N  0.29057623  0.94352593  0.80375056    -0.07700
N1133       N  0.30144449  0.91489706  0.81894955    -0.59800
N1134       N  0.27176845  0.52429554  0.83818822    -0.07400
N1135       N  0.27545575  0.54136551  0.86664495    -0.62000
N1136       N  0.24940453  0.49853476  0.83955821    -0.07000
N1137       N  0.23708770  0.49762821  0.86918499    -0.59800
N1138       N  0.31343430  0.96909723  0.80347408    -0.06700
N1139       N  0.33996110  0.95782047  0.81818317    -0.62300
C1140       C  0.33268946  0.92361443  0.82786745     0.94500
C1141       C  0.25372360  0.52450456  0.88575954     0.94200
N1142       N  0.27535152  0.59875305  0.76070928    -0.07900
N1143       N  0.28413981  0.63261912  0.75682593    -0.60400
N1144       N  0.32502812  0.03117129  0.74853710    -0.06000
N1145       N  0.35344771  0.01921307  0.74309738    -0.61700
N1146       N  0.31247345  0.04448105  0.72155380    -0.07900
N1147       N  0.33223947  0.04162836  0.69724474    -0.60700
N1148       N  0.28980381  0.58664687  0.78734734    -0.05700
N1149       N  0.30857104  0.61255924  0.80077523    -0.61700
Mn1150     Mn  0.30115320  0.52942955  0.79519670     1.18400
C1151       C  0.30585478  0.64095908  0.78106341     0.96500
C1152       C  0.35728447  0.02610838  0.71114898     0.97200
N1153       N  0.19111298  0.47883849  0.79171642    -0.07900
N1154       N  0.16914916  0.47123548  0.81324493    -0.64300
N1155       N  0.22036630  0.94311017  0.72253171    -0.06700
N1156       N  0.20514867  0.92055341  0.70196797    -0.64900
N1157       N  0.22623094  0.92756895  0.75076931    -0.07500
N1158       N  0.21035520  0.89601955  0.75041747    -0.64500
N1159       N  0.17831071  0.49246826  0.76512314    -0.06300
N1160       N  0.14712122  0.49422760  0.76819242    -0.65200
Mn1161     Mn  0.23908597  0.96036619  0.79580919     1.10700
C1162       C  0.14213143  0.48072557  0.79824701     0.97800
C1163       C  0.19635823  0.89254241  0.71991822     0.97800
N1164       N  0.25454821  0.02628550  0.67271269    -0.07500
N1165       N  0.26868799  0.02099968  0.64423466    -0.62800
N1166       N  0.19046327  0.55575767  0.71079402    -0.06800
N1167       N  0.16409185  0.56398514  0.69423418    -0.59600
N1168       N  0.21309907  0.58113589  0.70748445    -0.08100
N1169       N  0.20174104  0.60698215  0.68855735    -0.62400
N1170       N  0.23005805  0.00366408  0.67528031    -0.07100
N1171       N  0.22585721  0.98326264  0.64908973    -0.59600
Mn1172     Mn  0.26524960  0.56457676  0.71673837     1.20200
Mn1173     Mn  0.20406473  0.99817305  0.71898268     1.10100
Cl1174     Cl  0.25293229  0.51449000  0.75769896    -0.87600
C1175       C  0.24998144  0.99393625  0.62989310     0.94800
C1176       C  0.17047502  0.59653369  0.68075635     0.94600
C1177       C  0.37670479  0.65324131  0.73353798    -0.03400
C1178       C  0.40073877  0.65437507  0.75890848     0.06200
C1179       C  0.39179657  0.66350908  0.79143797    -0.03600
C1180       C  0.35922575  0.66713305  0.79843550    -0.03600
C1181       C  0.33561304  0.66230162  0.77349503     0.06400
C1182       C  0.34541624  0.66175980  0.74062951    -0.03800
Br1183     Br  0.31638512  0.67298269  0.70503473    -0.02300
Br1184     Br  0.38425815  0.63665924  0.68905320    -0.02400
Br1185     Br  0.34585234  0.67911836  0.84202396    -0.02300
Br1186     Br  0.42260440  0.67057915  0.82723316    -0.02300
C1187       C  0.15294497  0.84440811  0.72205849    -0.03400
C1188       C  0.16232449  0.88019152  0.71658550     0.06200
C1189       C  0.13828553  0.90577087  0.71292891    -0.03600
C1190       C  0.10725822  0.89732476  0.72324147    -0.03600
C1191       C  0.09942775  0.86282945  0.73370650     0.06400
C1192       C  0.12094356  0.83548335  0.72938097    -0.03800
Br1193     Br  0.10596261  0.78615075  0.73115996    -0.02300
Br1194     Br  0.18364416  0.80808338  0.71824916    -0.02400
Br1195     Br  0.07594274  0.93354440  0.72510329    -0.02300
Br1196     Br  0.14555148  0.95241047  0.69371129    -0.02300
C1197       C  0.24769783  0.91065852  0.58082128    -0.03400
C1198       C  0.24967719  0.92282512  0.54846490     0.06200
C1199       C  0.25430520  0.95958305  0.54251123    -0.03600
C1200       C  0.25697557  0.98414735  0.56931562    -0.03600
C1201       C  0.25735482  0.97129133  0.60166598     0.06400
C1202       C  0.25482800  0.93420476  0.60698244    -0.03800
Br1203     Br  0.26229094  0.91494910  0.65011593    -0.02300
Br1204     Br  0.23587481  0.86112449  0.58941198    -0.02400
Br1205     Br  0.26018661  0.03475007  0.56190533    -0.02300
Br1206     Br  0.25662815  0.97571589  0.49795641    -0.02300
C1207       C  0.27235268  0.56980149  0.96700862    -0.03400
C1208       C  0.24220765  0.58319165  0.97316733     0.06200
C1209       C  0.21463252  0.56655664  0.95760607    -0.03600
C1210       C  0.21779270  0.54360556  0.93032190    -0.03600
C1211       C  0.24862157  0.53605466  0.91993801     0.06400
C1212       C  0.27549090  0.54608664  0.94024740    -0.03800
Br1213     Br  0.31682075  0.52836883  0.93055224    -0.02300
Br1214     Br  0.30976429  0.58570677  0.99287279    -0.02400
Br1215     Br  0.18009872  0.52697086  0.90509869    -0.02300
Br1216     Br  0.17247707  0.57718441  0.97226351    -0.02300
C1217       C  0.17038192  0.76566287  0.81983247    -0.03400
C1218       C  0.14760719  0.73672275  0.81749555     0.06200
C1219       C  0.15730970  0.70176266  0.82513848    -0.03600
C1220       C  0.18674246  0.69789744  0.84146476    -0.03600
C1221       C  0.20589316  0.72834375  0.85014880     0.06400
C1222       C  0.20065688  0.76051210  0.83377074    -0.03800
Br1223     Br  0.23430338  0.79757887  0.83101082    -0.02300
Br1224     Br  0.16040489  0.81242574  0.80511852    -0.02400
Br1225     Br  0.20059177  0.65159814  0.85406998    -0.02300
Br1226     Br  0.13053814  0.65872959  0.81701137    -0.02300
C1227       C  0.31543175  0.78730587  0.67604999    -0.03400
C1228       C  0.32052893  0.78446547  0.64205741     0.06200
C1229       C  0.34717255  0.76682675  0.63049610    -0.03600
C1230       C  0.36677076  0.74950693  0.65226407    -0.03600
C1231       C  0.36425110  0.75595122  0.68634563     0.06400
C1232       C  0.33830818  0.77465399  0.69832127    -0.03800
Br1233     Br  0.33389266  0.78200261  0.74502872    -0.02300
Br1234     Br  0.27800138  0.80947125  0.69167959    -0.02400
Br1235     Br  0.39704584  0.71770583  0.63362678    -0.02300
Br1236     Br  0.35832254  0.76623198  0.58462879    -0.02300
C1237       C  0.39882203  0.67132061  0.01439314    -0.03400
C1238       C  0.37751133  0.68661271  0.99270771     0.06200
C1239       C  0.37022905  0.67145990  0.96147850    -0.03600
C1240       C  0.38134832  0.63800890  0.95361897    -0.03600
C1241       C  0.39868369  0.62024236  0.97764450     0.06400
C1242       C  0.40864703  0.63722430  0.00757657    -0.03800
Br1243     Br  0.43720157  0.61589934  0.53939371    -0.02300
Br1244     Br  0.41266996  0.69669646  0.05409278    -0.02400
Br1245     Br  0.37000217  0.61503737  0.91184367    -0.02300
Br1246     Br  0.34179073  0.69455839  0.93167208    -0.02300
C1247       C  0.09110057  0.87981567  0.99448521    -0.03400
C1248       C  0.10208373  0.89585569  0.52258747     0.06200
C1249       C  0.11931555  0.87835803  0.54681760    -0.03600
C1250       C  0.12853745  0.84391705  0.54003973    -0.03600
C1251       C  0.12151587  0.82866905  0.50878063     0.06400
C1252       C  0.10072192  0.84408566  0.48658966    -0.03800
Br1253     Br  0.08893983  0.82350286  0.94443566    -0.02300
Br1254     Br  0.06010748  0.90177329  0.96640806    -0.00600
Br1255     Br  0.15413355  0.81933868  0.57148612    -0.02300
Br1256     Br  0.13244330  0.90252003  0.58766219    -0.02300
C1257       C  0.08641600  0.94364829  0.85610942    -0.03400
C1258       C  0.07283156  0.97475329  0.86729928     0.06200
C1259       C  0.07778705  0.50537281  0.85222102    -0.03600
C1260       C  0.09727064  0.50728924  0.82486929    -0.03600
C1261       C  0.11172209  0.47642463  0.81406696     0.06400
C1262       C  0.10558856  0.94537595  0.82864982    -0.03800
Br1263     Br  0.12601804  0.90325504  0.81346190    -0.02300
Br1264     Br  0.08097214  0.89981276  0.87980619    -0.02400
Br1265     Br  0.10829762  0.55301431  0.80583989    -0.02300
Br1266     Br  0.05984304  0.54843705  0.86909779    -0.02300
C1267       C  0.41052117  0.03964247  0.69157691    -0.03400
C1268       C  0.38380449  0.01582738  0.69221597     0.06200
C1269       C  0.37929740  0.49567036  0.66805151    -0.03600
C1270       C  0.39591653  0.49965725  0.63900399    -0.03600
C1271       C  0.41831676  0.52901065  0.63625254     0.06400
C1272       C  0.42881150  0.54900127  0.66458094    -0.03800
Br1273     Br  0.46235253  0.58622276  0.66270691    -0.02300
Br1274     Br  0.42112783  0.07008692  0.72924128    -0.02400
Br1275     Br  0.38859240  0.46355512  0.60467684    -0.02300
Br1276     Br  0.34189786  0.95563337  0.67071587    -0.02300
C1277       C  0.49983205  0.82851056  0.54778305    -0.03400
C1278       C  0.47128936  0.84630329  0.54711089     0.06200
C1279       C  0.44900590  0.83920635  0.57155594    -0.03600
C1280       C  0.95970928  0.82631723  0.60138184    -0.03600
C1281       C  0.99220529  0.81818229  0.60531819     0.06400
C1282       C  0.51166024  0.81634933  0.57776961    -0.03800
Br1283     Br  0.55468123  0.80063813  0.58125171    -0.02300
Br1284     Br  0.52289903  0.82436498  0.50801707    -0.02400
Br1285     Br  0.92994414  0.82097345  0.63677299    -0.02300
Br1286     Br  0.90574732  0.85359596  0.56531278    -0.02300
C1287       C  0.05543981  0.67302081  0.93860534    -0.03400
C1288       C  0.03222188  0.66244981  0.96097406     0.06200
C1289       C  0.50367722  0.67922143  0.96006287    -0.03600
C1290       C  0.49222630  0.69156570  0.92998968    -0.03600
C1291       C  0.51235253  0.69038818  0.90278665     0.06400
C1292       C  0.54525467  0.68488358  0.90799161    -0.03800
Br1293     Br  0.07622251  0.69658373  0.87516292    -0.02300
Br1294     Br  0.09966683  0.66531210  0.94837210    -0.02400
Br1295     Br  0.44962951  0.70828781  0.92606372    -0.02300
Br1296     Br  0.48054993  0.68279255  0.99969564    -0.02300
C1297       C  0.90067665  0.35712639  0.35014042     0.84900
C1298       C  0.91767314  0.38492728  0.37344812    -0.55300
C1299       C  0.89863551  0.40491823  0.39253204     0.07800
C1300       C  0.86167107  0.39527038  0.38543781     0.18800
C1301       C  0.87808348  0.33465269  0.37315737    -0.56100
C1302       C  0.85700061  0.35365042  0.39182584     0.07900
C1303       C  0.87719807  0.37954770  0.32946286    -0.55600
C1304       C  0.85648370  0.40001648  0.34685374     0.08500
H1305       H  0.94360379  0.38829941  0.37498140     0.13000
H1306       H  0.84581646  0.41160390  0.40040468    -0.01200
H1307       H  0.87885431  0.30581233  0.37446020     0.13300
H1308       H  0.87746536  0.37967869  0.30278854     0.13100
C1309       C  0.60340597  0.10786438  0.10936379     0.84900
C1310       C  0.62486636  0.13431098  0.08999099    -0.55300
C1311       C  0.64426977  0.15859747  0.10765161     0.07800
C1312       C  0.63883426  0.15343494  0.14678450     0.18800
C1313       C  0.62672351  0.09009289  0.13350960    -0.56100
C1314       C  0.64594087  0.11273224  0.15370694     0.07900
C1315       C  0.58384762  0.13156275  0.13152252    -0.55600
C1316       C  0.60069030  0.15517659  0.15236655     0.08500
H1317       H  0.62506891  0.13331872  0.06330000     0.13000
H1318       H  0.65347904  0.17267978  0.16262065    -0.01200
H1319       H  0.62760236  0.06123681  0.13461443     0.13300
H1320       H  0.55789246  0.12876931  0.13146817     0.13100
N1321       N  0.55184054  0.49452235  0.44837245    -0.07700
N1322       N  0.57478815  0.48250530  0.43016776    -0.59800
N1323       N  0.01029524  0.07001910  0.45418665    -0.07400
N1324       N  0.00181955  0.10277489  0.44879154    -0.62000
N1325       N  0.53736040  0.07131513  0.47103799    -0.07000
N1326       N  0.54784287  0.10442296  0.47748053    -0.59800
N1327       N  0.52462464  0.49224196  0.43139487    -0.06700
N1328       N  0.52833960  0.47827880  0.40205774    -0.62300
C1329       C  0.55952116  0.47202580  0.40164890     0.94500
C1330       C  0.52524920  0.12360038  0.46360553     0.94200
N1331       N  0.92431130  0.03012390  0.48682754    -0.07900
N1332       N  0.90598107  0.05417449  0.99980576    -0.60400
N1333       N  0.95015385  0.47149624  0.43595554    -0.06000
N1334       N  0.94035552  0.45484354  0.40808485    -0.61700
N1335       N  0.93230318  0.46028117  0.46026985    -0.07900
N1336       N  0.90984170  0.43610505  0.44921018    -0.60700
N1337       N  0.93998352  0.04374477  0.46212300    -0.05700
N1338       N  0.93163676  0.07616220  0.45622859    -0.61700
Mn1339     Mn  0.98085528  0.01957617  0.44342282     1.18400
C1340       C  0.90942997  0.08132459  0.47881332     0.96500
C1341       C  0.91492514  0.43278603  0.41631184     0.97200
N1342       N  0.56297683  0.05398588  0.04331038    -0.07900
N1343       N  0.58449284  0.07946368  0.05318782    -0.64300
N1344       N  0.55293460  0.46456206  0.04442519    -0.06700
N1345       N  0.55982448  0.43217174  0.05264688    -0.64900
N1346       N  0.57008104  0.47622878  0.52170314    -0.07500
N1347       N  0.58996028  0.45191980  0.51328771    -0.64500
N1348       N  0.54773439  0.04080639  0.06869986    -0.06300
N1349       N  0.55919991  0.05699454  0.09638277    -0.65200
Mn1350     Mn  0.55667769  0.02566163  0.49236471     1.10700
C1351       C  0.58213622  0.08159446  0.08648938     0.97800
C1352       C  0.58208541  0.42410786  0.03093712     0.97800
N1353       N  0.95554440  0.44130072  0.03164219    -0.07500
N1354       N  0.94414813  0.40804670  0.02735599    -0.62800
N1355       N  0.97404038  0.01198199  0.07544302    -0.06800
N1356       N  0.96895921  0.02050355  0.10619404    -0.59600
N1357       N  0.94698042  0.00912531  0.05820600    -0.08100
N1358       N  0.92307323  0.01652991  0.07710289    -0.62400
N1359       N  0.98198845  0.44291196  0.04997554    -0.07100
N1360       N  0.48900524  0.41028867  0.05830325    -0.59600
Mn1361     Mn  0.93783216  0.48775457  0.00855057     1.20200
Mn1362     Mn  0.51279495  0.49218380  0.06041631     1.10100
Cl1363     Cl  0.99847744  0.00419221  0.50085465    -0.87600
C1364       C  0.96571244  0.38916659  0.04358930     0.94800
C1365       C  0.93722804  0.02338672  0.10679448     0.94600
N1366       N  0.80891374  0.21827414  0.52728712    -0.07700
N1367       N  0.82785209  0.19159525  0.52641311    -0.59800
N1368       N  0.78798311  0.29119272  0.06366590    -0.07400
N1369       N  0.80123467  0.31081085  0.08800307    -0.62000
N1370       N  0.77335607  0.26223020  0.07555910    -0.07000
N1371       N  0.77736870  0.26171898  0.10766861    -0.59800
N1372       N  0.82304777  0.24675591  0.51413801    -0.06700
N1373       N  0.85178818  0.23993418  0.50408681    -0.62300
C1374       C  0.85424811  0.20565708  0.51239155     0.94500
C1375       C  0.79539924  0.29166635  0.11521370     0.94200
N1376       N  0.75168529  0.35117947  0.99266991    -0.07900
N1377       N  0.73922743  0.38202788  0.00007719    -0.60400
N1378       N  0.81405235  0.30902655  0.45931056    -0.06000
N1379       N  0.84143853  0.32136951  0.44614155    -0.61700
N1380       N  0.78978609  0.31507683  0.43941465    -0.07900
N1381       N  0.80052255  0.33157650  0.41249561    -0.60700
N1382       N  0.77784874  0.34758382  0.01014882    -0.05700
N1383       N  0.78465185  0.37568836  0.02896011    -0.61700
Mn1384     Mn  0.80153862  0.29833610  0.01129366     1.18400
C1385       C  0.76060396  0.39713266  0.02259832     0.96500
C1386       C  0.83315613  0.33523942  0.41638872     0.97200
N1387       N  0.70991336  0.20745838  0.06491259    -0.07900
N1388       N  0.69905406  0.19203713  0.09243849    -0.64300
N1389       N  0.72501877  0.17280365  0.48980541    -0.06700
N1390       N  0.71932396  0.14363354  0.47187543    -0.64900
N1391       N  0.74767549  0.16865528  0.51185723    -0.07500
N1392       N  0.75821249  0.13604601  0.50937454    -0.64500
N1393       N  0.68655673  0.20869726  0.04281150    -0.06300
N1394       N  0.65970427  0.19415136  0.05534957    -0.65200
Mn1395     Mn  0.76070774  0.21460554  0.04568145     1.10700
C1396       C  0.66698058  0.18432556  0.08699537     0.97800
C1397       C  0.73999258  0.12073214  0.48432877     0.97800
N1398       N  0.72730032  0.26186156  0.42811534    -0.07500
N1399       N  0.73095346  0.26200082  0.39622821    -0.62800
N1400       N  0.67602506  0.26906681  0.98751018    -0.06800
N1401       N  0.64701805  0.27261200  0.99821167    -0.59600
N1402       N  0.68891395  0.29967634  0.97711084    -0.08100
N1403       N  0.66833821  0.32473805  0.98061185    -0.62400
N1404       N  0.71271816  0.23167745  0.43724664    -0.07100
N1405       N  0.70578300  0.21132105  0.41089604    -0.59600
Mn1406     Mn  0.73876926  0.30785864  0.45978792     1.20200
Mn1407     Mn  0.69924712  0.22080985  0.48943284     1.10100
Cl1408     Cl  0.74990857  0.26006403  0.00085287    -0.87600
C1409       C  0.71759366  0.23050198  0.38539800     0.94800
C1410       C  0.64261472  0.30717578  0.99338370     0.94600
N1411       N  0.94204846  0.24675699  0.20980004    -0.07700
N1412       N  0.91408033  0.23288945  0.19947110    -0.59800
N1413       N  0.99882897  0.30541402  0.19123573    -0.07400
N1414       N  0.49657954  0.32960918  0.16814753    -0.62000
N1415       N  0.00353467  0.27406750  0.17736872    -0.07000
N1416       N  0.50371961  0.27655795  0.14490917    -0.59800
N1417       N  0.93837104  0.27833524  0.22345635    -0.06700
N1418       N  0.90842805  0.28695113  0.22145333    -0.62300
C1419       C  0.89350747  0.25850997  0.20605664     0.94500
C1420       C  0.49932370  0.31124437  0.13966540     0.94200
N1421       N  0.53749732  0.33021331  0.28248628    -0.07900
N1422       N  0.56840285  0.33745953  0.27960576    -0.60400
N1423       N  0.95505161  0.32053190  0.28893603    -0.06000
N1424       N  0.92830446  0.33673746  0.29603816    -0.61700
N1425       N  0.96963457  0.31068082  0.31588280    -0.07900
N1426       N  0.95257237  0.32009649  0.34195055    -0.60700
N1427       N  0.52183686  0.34111280  0.25644777    -0.05700
N1428       N  0.54184219  0.35607227  0.23561490    -0.61700
Mn1429     Mn  0.97809662  0.31225948  0.24016077     1.18400
C1430       C  0.57060698  0.35377256  0.25049602     0.96500
C1431       C  0.92626209  0.33636762  0.32945563     0.97200
N1432       N  0.53771524  0.20145392  0.19341967    -0.07900
N1433       N  0.55383327  0.19404062  0.16640869    -0.64300
N1434       N  0.98273321  0.16829600  0.25260410    -0.06700
N1435       N  0.95872451  0.15637595  0.27089830    -0.64900
N1436       N  0.97167541  0.17656363  0.22354556    -0.07500
N1437       N  0.94083156  0.16896440  0.22131262    -0.64500
N1438       N  0.55218635  0.18913078  0.21949456    -0.06300
N1439       N  0.57885951  0.17344666  0.21024055    -0.65200
Mn1440     Mn  0.98938797  0.22453225  0.20031916     1.10700
C1441       C  0.58041571  0.17720964  0.17666718     0.97800
C1442       C  0.93243512  0.15681947  0.25078716     0.97800
N1443       N  0.50077199  0.23695979  0.33170984    -0.07500
N1444       N  0.99589397  0.23599737  0.36376763    -0.62800
N1445       N  0.56768639  0.22751076  0.28823856    -0.06800
N1446       N  0.59654962  0.21579392  0.28923475    -0.59600
N1447       N  0.56609442  0.25812674  0.30451304    -0.08100
N1448       N  0.59479275  0.26720130  0.31751856    -0.62400
N1449       N  0.50573864  0.20489614  0.31934620    -0.07100
N1450       N  0.00483495  0.18175174  0.34376999    -0.59600
Mn1451     Mn  0.51862544  0.28484832  0.30978690     1.20200
Mn1452     Mn  0.52738120  0.19612958  0.26995802     1.10100
Cl1453     Cl  0.00376315  0.25460275  0.25534338    -0.87600
C1454       C  0.99833872  0.20158010  0.37078911     0.94800
C1455       C  0.61338621  0.24033552  0.30752905     0.94600
N1456       N  0.79107870  0.44514839  0.30483884    -0.07700
N1457       N  0.80182541  0.41645159  0.31997547    -0.59800
N1458       N  0.77039348  0.02215340  0.33637543    -0.07400
N1459       N  0.77427250  0.03944076  0.36463093    -0.62000
N1460       N  0.74817173  0.99635477  0.33800741    -0.07000
N1461       N  0.73611848  0.99555653  0.36779915    -0.59800
N1462       N  0.81396780  0.47070820  0.30467292    -0.06700
N1463       N  0.84043484  0.45929456  0.31939213    -0.62300
C1464       C  0.83302748  0.42507182  0.32897451     0.94500
C1465       C  0.75288654  0.02262253  0.38408497     0.94200
N1466       N  0.77362432  0.09730622  0.26002081    -0.07900
N1467       N  0.78255888  0.13133211  0.25742029    -0.60400
N1468       N  0.82658369  0.53230997  0.24942175    -0.06000
N1469       N  0.85558040  0.52154624  0.24460159    -0.61700
N1470       N  0.81406658  0.54508990  0.22219662    -0.07900
N1471       N  0.83446802  0.54310217  0.19834760    -0.60700
N1472       N  0.78729142  0.08435586  0.28668795    -0.05700
N1473       N  0.80524445  0.10984500  0.30170514    -0.61700
Mn1474     Mn  0.79925707  0.02754588  0.29345770     1.18400
C1475       C  0.80318057  0.13895451  0.28287342     0.96500
C1476       C  0.85989111  0.52868016  0.21274050     0.97200
N1477       N  0.69044432  0.97818631  0.28980194    -0.07900
N1478       N  0.66887158  0.97235405  0.31204868    -0.64300
N1479       N  0.72123441  0.44315035  0.22362838    -0.06700
N1480       N  0.70613653  0.42041329  0.20318236    -0.64900
N1481       N  0.72718661  0.42789092  0.25195447    -0.07500
N1482       N  0.71147387  0.39626252  0.25181230    -0.64500
N1483       N  0.67751775  0.99165737  0.26322251    -0.06300
N1484       N  0.64660101  0.99478399  0.26682305    -0.65200
Mn1485     Mn  0.73958482  0.46134782  0.29655906     1.10700
C1486       C  0.64196366  0.98252640  0.29732197     0.97800
C1487       C  0.69756719  0.39248678  0.22129205     0.97800
N1488       N  0.75627160  0.52497246  0.17364827    -0.07500
N1489       N  0.77133457  0.51856284  0.14593224    -0.62800
N1490       N  0.68851195  0.05517647  0.20965593    -0.06800
N1491       N  0.66216748  0.06356955  0.19312629    -0.59600
N1492       N  0.71105440  0.08074859  0.20679677    -0.08100
N1493       N  0.69967775  0.10686385  0.18822437    -0.62400
N1494       N  0.73178892  0.50234239  0.17628271    -0.07100
N1495       N  0.72878388  0.48044360  0.15098772    -0.59600
Mn1496     Mn  0.76317779  0.06410771  0.21541052     1.20200
Mn1497     Mn  0.70486255  0.49793424  0.21957666     1.10100
Cl1498     Cl  0.75133123  0.01312091  0.25571503    -0.87600
C1499       C  0.75343604  0.49050225  0.13225212     0.94800
C1500       C  0.66848816  0.09640977  0.18016791     0.94600
C1501       C  0.87381153  0.15976860  0.23636184    -0.03400
C1502       C  0.89826825  0.15716996  0.26107529     0.06200
C1503       C  0.88956182  0.16041848  0.29460581    -0.03600
C1504       C  0.85699780  0.16209024  0.30264385    -0.03600
C1505       C  0.83306251  0.16126152  0.27776295     0.06400
C1506       C  0.84248516  0.16645204  0.24516231    -0.03800
Br1507     Br  0.81252331  0.18195530  0.21207869    -0.02300
Br1508     Br  0.88024562  0.14952281  0.19007758    -0.02400
Br1509     Br  0.84416189  0.16449522  0.34781426    -0.02300
Br1510     Br  0.92064768  0.16090777  0.33039124    -0.02300
C1511       C  0.65521340  0.34363971  0.22488073    -0.03400
C1512       C  0.66381892  0.37919451  0.21770857     0.06200
C1513       C  0.63921472  0.40377157  0.21222049    -0.03600
C1514       C  0.60805177  0.39485698  0.22196145    -0.03600
C1515       C  0.60083369  0.36082203  0.23402491     0.06400
C1516       C  0.62321338  0.33410214  0.23161248    -0.03800
Br1517     Br  0.60945648  0.28457942  0.23476449    -0.02300
Br1518     Br  0.68721796  0.30847550  0.22487699    -0.02400
Br1519     Br  0.57585306  0.43019122  0.22126488    -0.02300
Br1520     Br  0.64604001  0.45006645  0.19213490    -0.02300
C1521       C  0.75003997  0.40923263  0.07976931    -0.03400
C1522       C  0.75312134  0.42305012  0.04807794     0.06200
C1523       C  0.75889768  0.45998049  0.04388466    -0.03600
C1524       C  0.76142171  0.48309866  0.07172051    -0.03600
C1525       C  0.76050473  0.46860782  0.10342712     0.06400
C1526       C  0.75677632  0.43129974  0.10712443    -0.03800
Br1527     Br  0.76212760  0.40969728  0.14959469    -0.02300
Br1528     Br  0.73657492  0.35958582  0.08571083    -0.02400
Br1529     Br  0.76527421  0.53408349  0.06656445    -0.02300
Br1530     Br  0.76238222  0.47842837  0.00026825    -0.02300
C1531       C  0.77342130  0.07268088  0.46198046    -0.03400
C1532       C  0.74308898  0.08492273  0.46934816     0.06200
C1533       C  0.71534471  0.06670656  0.45561246    -0.03600
C1534       C  0.71801271  0.04207846  0.42946618    -0.03600
C1535       C  0.74857242  0.03463113  0.41829049     0.06400
C1536       C  0.77598021  0.04679389  0.43690504    -0.03800
Br1537     Br  0.81735282  0.02940510  0.42661620    -0.02300
Br1538     Br  0.81187280  0.09390919  0.48270896    -0.02400
Br1539     Br  0.67983240  0.02244446  0.40685879    -0.02300
Br1540     Br  0.67347649  0.07708386  0.47123585    -0.02300
C1541       C  0.66924116  0.26359065  0.32126900    -0.03400
C1542       C  0.64646347  0.23465574  0.31868616     0.06200
C1543       C  0.65610649  0.19966369  0.32623953    -0.03600
C1544       C  0.68517998  0.19587612  0.34335078    -0.03600
C1545       C  0.70460935  0.22637942  0.35146664     0.06400
C1546       C  0.69972981  0.25802568  0.33429455    -0.03800
Br1547     Br  0.73392110  0.29420844  0.33026616    -0.02300
Br1548     Br  0.65897265  0.31113049  0.30916171    -0.02400
Br1549     Br  0.69785129  0.14978220  0.35787982    -0.02300
Br1550     Br  0.62964721  0.15666947  0.31685914    -0.02300
C1551       C  0.81554286  0.28967736  0.17303998    -0.03400
C1552       C  0.82127861  0.28802129  0.13918286     0.06200
C1553       C  0.85028593  0.27536052  0.12754202    -0.03600
C1554       C  0.87316070  0.26388248  0.14955635    -0.03600
C1555       C  0.86708059  0.26456825  0.18355827     0.06400
C1556       C  0.83867388  0.27814425  0.19540054    -0.03800
Br1557     Br  0.83168451  0.28091642  0.24209455    -0.02300
Br1558     Br  0.77639800  0.30828999  0.18840225    -0.02400
Br1559     Br  0.91382175  0.25027473  0.13190271    -0.02300
Br1560     Br  0.85953913  0.27191854  0.08121161    -0.02300
C1561       C  0.89466253  0.16461738  0.52561093    -0.03400
C1562       C  0.87852157  0.18315095  0.50139052     0.06200
C1563       C  0.87602880  0.17051198  0.46871880    -0.03600
C1564       C  0.88682491  0.13689902  0.46108405    -0.03600
C1565       C  0.89948025  0.11648438  0.48642215     0.06400
C1566       C  0.90514690  0.13091494  0.51831851    -0.03800
Br1567     Br  0.92906927  0.10799558  0.05300987    -0.02300
Br1568     Br  0.90000832  0.18439940  0.56937396    -0.02400
Br1569     Br  0.88121084  0.11748325  0.41687950    -0.02300
Br1570     Br  0.85335050  0.19656872  0.43584840    -0.02300
C1571       C  0.58381741  0.37404289  0.49737398    -0.03400
C1572       C  0.58976651  0.38779905  0.02441444     0.06200
C1573       C  0.60503515  0.36831945  0.04878372    -0.03600
C1574       C  0.61834102  0.33638465  0.03963301    -0.03600
C1575       C  0.61628374  0.32531775  0.00645701     0.06400
C1576       C  0.59572046  0.34089591  0.98410568    -0.03800
Br1577     Br  0.58861946  0.31998173  0.44596524    -0.02300
Br1578     Br  0.55665001  0.39708081  0.46606789    -0.00600
Br1579     Br  0.64259503  0.31024608  0.07114108    -0.02300
Br1580     Br  0.61084397  0.38697430  0.09320333    -0.02300
C1581       C  0.58624968  0.44084591  0.35695802    -0.03400
C1582       C  0.57563396  0.47246200  0.37067667     0.06200
C1583       C  0.57582423  0.00673212  0.34888582    -0.03600
C1584       C  0.59586225  0.00844989  0.32201235    -0.03600
C1585       C  0.61165136  0.97787985  0.31286351     0.06400
C1586       C  0.60422132  0.44264064  0.32851648    -0.03800
Br1587     Br  0.62188514  0.40007880  0.31085452    -0.02300
Br1588     Br  0.57829047  0.39591379  0.37837548    -0.02400
Br1589     Br  0.60583087  0.05373353  0.30164401    -0.02300
Br1590     Br  0.55661497  0.04964350  0.36437318    -0.02300
C1591       C  0.91339236  0.54229077  0.19362389    -0.03400
C1592       C  0.88667337  0.51846349  0.19392509     0.06200
C1593       C  0.87740960  0.99258038  0.16794636    -0.03600
C1594       C  0.89620687  0.99273717  0.14024082    -0.03600
C1595       C  0.92025323  0.02029426  0.13718248     0.06400
C1596       C  0.92938851  0.04297929  0.16415478    -0.03800
Br1597     Br  0.96424037  0.07856589  0.16154971    -0.02300
Br1598     Br  0.92748762  0.56685733  0.23365566    -0.02400
Br1599     Br  0.88891322  0.95463809  0.10768373    -0.02300
Br1600     Br  0.84532556  0.45844762  0.17103227    -0.02300
C1601       C  0.98765533  0.33171846  0.05071445    -0.03400
C1602       C  0.96061708  0.35204638  0.05264173     0.06200
C1603       C  0.94056503  0.34775351  0.07938303    -0.03600
C1604       C  0.45353284  0.33582602  0.10881524    -0.03600
C1605       C  0.48465868  0.32244419  0.10897343     0.06400
C1606       C  0.00028389  0.31723909  0.07937100    -0.03800
Br1607     Br  0.04031671  0.29402156  0.07815770    -0.02300
Br1608     Br  0.00936052  0.32914254  0.00980513    -0.02400
Br1609     Br  0.42908926  0.34096952  0.14829968    -0.02300
Br1610     Br  0.39790581  0.36474458  0.07675848    -0.02300
C1611       C  0.55186391  0.17359958  0.43856386    -0.03400
C1612       C  0.52813542  0.16210111  0.46015441     0.06200
C1613       C  0.99887121  0.17839677  0.45958459    -0.03600
C1614       C  0.98825113  0.19199300  0.42976742    -0.03600
C1615       C  0.00929727  0.19258725  0.40337902     0.06400
C1616       C  0.04221505  0.18813597  0.40927399    -0.03800
Br1617     Br  0.57361997  0.20082011  0.37660654    -0.02300
Br1618     Br  0.59581162  0.16319768  0.44708924    -0.02400
Br1619     Br  0.94531202  0.20726542  0.42456639    -0.02300
Br1620     Br  0.97208034  0.17435662  0.49684250    -0.02300
C1621       C  0.90066729  0.35678447  0.84858911     0.84900
C1622       C  0.91753177  0.38446614  0.87213576    -0.55300
C1623       C  0.89835061  0.40433242  0.89118975     0.07800
C1624       C  0.86147290  0.39475949  0.88388742     0.18800
C1625       C  0.87789626  0.33421149  0.87138879    -0.56100
C1626       C  0.85673656  0.35313909  0.89004550     0.07900
C1627       C  0.87729266  0.37941909  0.82792003    -0.55600
C1628       C  0.85651598  0.39981571  0.84536981     0.08500
H1629       H  0.94345279  0.38788654  0.87382799     0.13000
H1630       H  0.84556687  0.41102318  0.89886086    -0.01200
H1631       H  0.87866043  0.30536540  0.87261188     0.13300
H1632       H  0.87772106  0.37978899  0.80125813     0.13100
C1633       C  0.60329825  0.10652071  0.60864465     0.84900
C1634       C  0.62472524  0.13327877  0.58960386    -0.55300
C1635       C  0.64394220  0.15747122  0.60758805     0.07800
C1636       C  0.63842935  0.15190226  0.64661507     0.18800
C1637       C  0.62668415  0.08862869  0.63279011    -0.56100
C1638       C  0.64579032  0.11120785  0.65324844     0.07900
C1639       C  0.58359612  0.12990914  0.63094651    -0.55600
C1640       C  0.60025724  0.15339777  0.65204540     0.08500
H1641       H  0.62502270  0.13260212  0.56291172     0.13000
H1642       H  0.65292588  0.17111661  0.66261936    -0.01200
H1643       H  0.62770798  0.05977676  0.63367999     0.13300
H1644       H  0.55764087  0.12703873  0.63073410     0.13100
N1645       N  0.55031795  0.49466031  0.94648288    -0.07700
N1646       N  0.57294131  0.48229413  0.92805569    -0.59800
N1647       N  0.01156344  0.07049241  0.95551601    -0.07400
N1648       N  0.00328374  0.10326999  0.94985549    -0.62000
N1649       N  0.53850375  0.07171214  0.97261185    -0.07000
N1650       N  0.54917798  0.10479449  0.97890796    -0.59800
N1651       N  0.52294960  0.49260047  0.92980413    -0.06700
N1652       N  0.52621425  0.47846538  0.90044730    -0.62300
C1653       C  0.55731708  0.47187946  0.89970015     0.94500
C1654       C  0.52666873  0.12408496  0.96500651     0.94200
N1655       N  0.92552139  0.03100564  0.98809202    -0.07900
N1656       N  0.90457769  0.05305407  0.49851963    -0.60400
N1657       N  0.94898348  0.47139086  0.93484172    -0.06000
N1658       N  0.93923957  0.45494674  0.90686427    -0.61700
N1659       N  0.93160692  0.45938422  0.95921459    -0.07900
N1660       N  0.90948827  0.43486786  0.94808260    -0.60700
N1661       N  0.94127375  0.04448323  0.96338044    -0.05700
N1662       N  0.93316652  0.07699150  0.95748488    -0.61700
Mn1663     Mn  0.98206329  0.02006140  0.94476791     1.18400
C1664       C  0.91101024  0.08240901  0.98006343     0.96500
C1665       C  0.91431746  0.43219666  0.91509286     0.97200
N1666       N  0.56227969  0.05370096  0.54196043    -0.07900
N1667       N  0.58417328  0.07873981  0.55205296    -0.64300
N1668       N  0.55301119  0.46539613  0.54653378    -0.06700
N1669       N  0.56037064  0.43344514  0.55562308    -0.64900
N1670       N  0.56942730  0.47543225  0.01919670    -0.07500
N1671       N  0.58834451  0.45062401  0.00956449    -0.64500
N1672       N  0.54692389  0.04054261  0.56729161    -0.06300
N1673       N  0.55867679  0.05623692  0.59508652    -0.65200
Mn1674     Mn  0.55768876  0.02597299  0.99389060     1.10700
C1675       C  0.58193366  0.08055855  0.58541785     0.97800
C1676       C  0.58356997  0.42566264  0.53488075     0.97800
N1677       N  0.95505201  0.44301303  0.53312976    -0.07500
N1678       N  0.94308017  0.41000679  0.52883333    -0.62800
N1679       N  0.97295215  0.01166985  0.57427765    -0.06800
N1680       N  0.96781780  0.01997208  0.60508506    -0.59600
N1681       N  0.94584736  0.00844765  0.55711009    -0.08100
N1682       N  0.92186505  0.01529555  0.57612788    -0.62400
N1683       N  0.98133458  0.44416593  0.55171963    -0.07100
N1684       N  0.48783990  0.41130678  0.55985062    -0.59600
Mn1685     Mn  0.93841981  0.48936891  0.50925762     1.20200
Mn1686     Mn  0.51275432  0.49325262  0.56173439     1.10100
Cl1687     Cl  0.99957821  0.00451779  0.00216610    -0.87600
C1688       C  0.96404965  0.39073879  0.54539917     0.94800
C1689       C  0.93601416  0.02230839  0.60579735     0.94600
N1690       N  0.80946737  0.21918280  0.02661195    -0.07700
N1691       N  0.82866706  0.19270689  0.02598426    -0.59800
N1692       N  0.78796910  0.29010501  0.56491640    -0.07400
N1693       N  0.80107619  0.30955474  0.58942177    -0.62000
N1694       N  0.77322218  0.26107858  0.57654929    -0.07000
N1695       N  0.77707270  0.26031613  0.60865738    -0.59800
N1696       N  0.82335479  0.24763744  0.01316280    -0.06700
N1697       N  0.85216263  0.24099056  0.00314991    -0.62300
C1698       C  0.85496071  0.20685233  0.01179182     0.94500
C1699       C  0.79513025  0.29017620  0.61644923     0.94200
N1700       N  0.75280746  0.35173662  0.49487136    -0.07900
N1701       N  0.74137918  0.38318632  0.50213507    -0.60400
N1702       N  0.81381772  0.30912427  0.95783930    -0.06000
N1703       N  0.84117345  0.32150048  0.94463998    -0.61700
N1704       N  0.78957134  0.31459557  0.93774205    -0.07900
N1705       N  0.80029720  0.33072138  0.91062584    -0.60700
N1706       N  0.77892542  0.34738905  0.51218942    -0.05700
N1707       N  0.78669754  0.37545924  0.53074716    -0.61700
Mn1708     Mn  0.80178623  0.29771443  0.51272211     1.18400
C1709       C  0.76331974  0.39776750  0.52440434     0.96500
C1710       C  0.83291007  0.33475176  0.91463542     0.97200
N1711       N  0.70956396  0.20689131  0.56559730    -0.07900
N1712       N  0.69869364  0.19100599  0.59287913    -0.64300
N1713       N  0.72589352  0.17250922  0.98959092    -0.06700
N1714       N  0.72040843  0.14297657  0.97214466    -0.64900
N1715       N  0.74853161  0.16893015  0.01179583    -0.07500
N1716       N  0.75929013  0.13638589  0.00989493    -0.64500
N1717       N  0.68619264  0.20867735  0.54361117    -0.06300
N1718       N  0.65929806  0.19404450  0.55595602    -0.65200
Mn1719     Mn  0.76025246  0.21384671  0.54628825     1.10700
C1720       C  0.66659605  0.18359579  0.58739184     0.97800
C1721       C  0.74120112  0.12049877  0.98505341     0.97800
N1722       N  0.72766327  0.26068374  0.92665459    -0.07500
N1723       N  0.73113876  0.26091383  0.89476173    -0.62800
N1724       N  0.67632373  0.27010225  0.48961150    -0.06800
N1725       N  0.64775502  0.27387387  0.50135638    -0.59600
N1726       N  0.68941929  0.30081111  0.47965126    -0.08100
N1727       N  0.66940362  0.32618903  0.48450963    -0.62400
N1728       N  0.71313430  0.23050473  0.93588177    -0.07100
N1729       N  0.70600741  0.21023850  0.90948789    -0.59600
Mn1730     Mn  0.73847561  0.30697220  0.95788140     1.20200
Mn1731     Mn  0.69960488  0.22014219  0.98835652     1.10100
Cl1732     Cl  0.74987638  0.26010737  0.50206227    -0.87600
C1733       C  0.71770890  0.22949195  0.88393407     0.94800
C1734       C  0.64385426  0.30869220  0.49768638     0.94600
N1735       N  0.94151913  0.24434143  0.70984338    -0.07700
N1736       N  0.91341876  0.23016279  0.70034895    -0.59800
N1737       N  0.99796104  0.30272233  0.68947517    -0.07400
N1738       N  0.49449124  0.32644868  0.66642495    -0.62000
N1739       N  0.00217746  0.27112315  0.67583451    -0.07000
N1740       N  0.50105120  0.27308059  0.64353344    -0.59800
N1741       N  0.93800617  0.27618665  0.72299088    -0.06700
N1742       N  0.90800674  0.28461673  0.72148460    -0.62300
C1743       C  0.89290137  0.25583119  0.70685335     0.94500
C1744       C  0.49646364  0.30769461  0.63806005     0.94200
N1745       N  0.53687441  0.32972570  0.78061959    -0.07900
N1746       N  0.56762177  0.33800653  0.77801465    -0.60400
N1747       N  0.95512484  0.31970921  0.78751901    -0.06000
N1748       N  0.92833612  0.33590290  0.79454749    -0.61700
N1749       N  0.96987220  0.31027436  0.81453606    -0.07900
N1750       N  0.95286053  0.31999766  0.84056055    -0.60700
N1751       N  0.52109451  0.33983356  0.75435795    -0.05700
N1752       N  0.54086732  0.35525088  0.73353821    -0.61700
Mn1753     Mn  0.97778314  0.31057374  0.73858326     1.18400
C1754       C  0.56959209  0.35409751  0.74880599     0.96500
C1755       C  0.92641025  0.33600035  0.82798910     0.97200
N1756       N  0.53690049  0.19913950  0.69304061    -0.07900
N1757       N  0.55285523  0.19149863  0.66598288    -0.64300
N1758       N  0.98242053  0.16730792  0.75349352    -0.06700
N1759       N  0.95835479  0.15662205  0.77233457    -0.64900
N1760       N  0.97127800  0.17441879  0.72416523    -0.07500
N1761       N  0.94038887  0.16692574  0.72228631    -0.64500
N1762       N  0.55177202  0.18752516  0.71917171    -0.06300
N1763       N  0.57859016  0.17212636  0.70991775    -0.65200
Mn1764     Mn  0.98862808  0.22202990  0.69992954     1.10700
C1765       C  0.57975537  0.17527051  0.67626125     0.97800
C1766       C  0.93195731  0.15636143  0.75226270     0.97800
N1767       N  0.50207036  0.23687389  0.83179556    -0.07500
N1768       N  0.99802651  0.23626512  0.86362420    -0.62800
N1769       N  0.56806195  0.22761447  0.78673750    -0.06800
N1770       N  0.59703382  0.21622086  0.78712426    -0.59600
N1771       N  0.56657782  0.25834058  0.80285845    -0.08100
N1772       N  0.59547416  0.26772010  0.81526570    -0.62400
N1773       N  0.50691709  0.20472145  0.81957429    -0.07100
N1774       N  0.00637013  0.18181496  0.84370534    -0.59600
Mn1775     Mn  0.51888082  0.28459059  0.80868802     1.20200
Mn1776     Mn  0.52759459  0.19543047  0.76987207     1.10100
Cl1777     Cl  0.00367095  0.25339111  0.75438511    -0.87600
C1778       C  0.00051190  0.20185089  0.87075785     0.94800
C1779       C  0.61406705  0.24094650  0.80500685     0.94600
N1780       N  0.79115425  0.44607115  0.80455468    -0.07700
N1781       N  0.80187742  0.41699600  0.81905335    -0.59800
N1782       N  0.77100201  0.02212718  0.83717113    -0.07400
N1783       N  0.77511752  0.03944189  0.86540384    -0.62000
N1784       N  0.74874101  0.99639444  0.83902434    -0.07000
N1785       N  0.73691735  0.99566005  0.86891097    -0.59800
N1786       N  0.81416031  0.47150372  0.80456144    -0.06700
N1787       N  0.84069823  0.45962927  0.81875689    -0.62300
C1788       C  0.83320259  0.42522855  0.82778064     0.94500
C1789       C  0.75383244  0.02270180  0.88504790     0.94200
N1790       N  0.77415610  0.09658534  0.76008244    -0.07900
N1791       N  0.78276607  0.13073051  0.75766127    -0.60400
N1792       N  0.82698183  0.53376198  0.75014443    -0.06000
N1793       N  0.85581238  0.52265233  0.74507339    -0.61700
N1794       N  0.81448926  0.54694832  0.72310108    -0.07900
N1795       N  0.83472309  0.54490626  0.69911582    -0.60700
N1796       N  0.78772925  0.08375988  0.78685623    -0.05700
N1797       N  0.80520743  0.10942730  0.80219438    -0.61700
Mn1798     Mn  0.79968890  0.02703561  0.79396948     1.18400
C1799       C  0.80294344  0.13859172  0.78347937     0.96500
C1800       C  0.86002601  0.52999941  0.71324261     0.97200
N1801       N  0.69077469  0.97836283  0.79110604    -0.07900
N1802       N  0.66928980  0.97327028  0.81357824    -0.64300
N1803       N  0.72108540  0.44505329  0.72382942    -0.06700
N1804       N  0.70540885  0.42272955  0.70343028    -0.64900
N1805       N  0.72701128  0.42954355  0.75204250    -0.07500
N1806       N  0.71085335  0.39818114  0.75188522    -0.64500
N1807       N  0.67781968  0.99151812  0.76438502    -0.06300
N1808       N  0.64696710  0.99509871  0.76811194    -0.65200
Mn1809     Mn  0.73972005  0.46258284  0.79681652     1.10700
C1810       C  0.64239866  0.98355970  0.79886915     0.97800
C1811       C  0.69670782  0.39479261  0.72146430     0.97800
N1812       N  0.75683612  0.52728909  0.67459987    -0.07500
N1813       N  0.77246778  0.52061864  0.64729037    -0.62800
N1814       N  0.68859048  0.05420354  0.70982909    -0.06800
N1815       N  0.66225744  0.06230854  0.69307657    -0.59600
N1816       N  0.71112018  0.07976494  0.70675332    -0.08100
N1817       N  0.69970165  0.10558934  0.68781911    -0.62400
N1818       N  0.73226320  0.50471297  0.67690449    -0.07100
N1819       N  0.72974684  0.48265110  0.65167784    -0.59600
Mn1820     Mn  0.76335432  0.06302784  0.71560675     1.20200
Mn1821     Mn  0.70524001  0.49997589  0.72029370     1.10100
Cl1822     Cl  0.75156850  0.01252587  0.75651418    -0.87600
C1823       C  0.75481705  0.49250970  0.63338325     0.94800
C1824       C  0.66851357  0.09498731  0.67975445     0.94600
C1825       C  0.87326254  0.16059583  0.73785209    -0.03400
C1826       C  0.89773588  0.15756654  0.76255516     0.06200
C1827       C  0.88895545  0.16082005  0.79608663    -0.03600
C1828       C  0.85632881  0.16243381  0.80405173    -0.03600
C1829       C  0.83247130  0.16176887  0.77909465     0.06400
C1830       C  0.84202896  0.16767017  0.74670686    -0.03800
Br1831     Br  0.81203124  0.18372928  0.71392741    -0.02300
Br1832     Br  0.87915012  0.14992500  0.69157281    -0.02400
Br1833     Br  0.84322716  0.16434387  0.84913457    -0.02300
Br1834     Br  0.91998037  0.16116147  0.83190731    -0.02300
C1835       C  0.65434520  0.34574516  0.72331335    -0.03400
C1836       C  0.66292476  0.38173394  0.71795887     0.06200
C1837       C  0.63835996  0.40660511  0.71381712    -0.03600
C1838       C  0.60717773  0.39705783  0.72303535    -0.03600
C1839       C  0.59983378  0.36218048  0.73284455     0.06400
C1840       C  0.62230341  0.33568877  0.72938719    -0.03800
Br1841     Br  0.60872971  0.28593152  0.73098451    -0.02300
Br1842     Br  0.68643525  0.31073558  0.72164227    -0.02400
Br1843     Br  0.57516909  0.43252250  0.72517542    -0.02300
Br1844     Br  0.64522583  0.45391196  0.69586474    -0.02300
C1845       C  0.75229068  0.41070027  0.58142515    -0.03400
C1846       C  0.75677383  0.42424179  0.54978957     0.06200
C1847       C  0.76434437  0.46092033  0.54570646    -0.03600
C1848       C  0.76623277  0.48423129  0.57344887    -0.03600
C1849       C  0.76278136  0.47010246  0.60510529     0.06400
C1850       C  0.75819444  0.43288265  0.60887266    -0.03800
Br1851     Br  0.76177542  0.41146037  0.65160896    -0.02300
Br1852     Br  0.73817635  0.36122071  0.58731877    -0.02400
Br1853     Br  0.77319503  0.53495530  0.56822574    -0.02300
Br1854     Br  0.77166327  0.47878223  0.50237565    -0.02300
C1855       C  0.77486023  0.07267396  0.96289797    -0.03400
C1856       C  0.74449878  0.08450372  0.97066706     0.06200
C1857       C  0.71677000  0.06591457  0.95738175    -0.03600
C1858       C  0.71932554  0.04151652  0.93104583    -0.03600
C1859       C  0.74982980  0.03459298  0.91934904     0.06400
C1860       C  0.77735770  0.04692910  0.93769437    -0.03800
Br1861     Br  0.81873385  0.02984553  0.92700494    -0.02300
Br1862     Br  0.81332230  0.09433818  0.98323899    -0.02400
Br1863     Br  0.68099115  0.02160399  0.90893083    -0.02300
Br1864     Br  0.67505984  0.07577215  0.97376217    -0.02300
C1865       C  0.67020059  0.26332526  0.81901090    -0.03400
C1866       C  0.64699419  0.23481216  0.81647413     0.06200
C1867       C  0.65601154  0.19968319  0.82447538    -0.03600
C1868       C  0.68487730  0.19545612  0.84181128    -0.03600
C1869       C  0.70463859  0.22563518  0.84999193     0.06400
C1870       C  0.70040688  0.25732380  0.83260540    -0.03800
Br1871     Br  0.73523622  0.29275869  0.82865679    -0.02300
Br1872     Br  0.66082849  0.31083009  0.80594133    -0.02400
Br1873     Br  0.69698833  0.14914191  0.85629474    -0.02300
Br1874     Br  0.62896241  0.15703569  0.81547225    -0.02300
C1875       C  0.81510773  0.28731925  0.67418258    -0.03400
C1876       C  0.82096444  0.28619247  0.64034368     0.06200
C1877       C  0.84991395  0.27348138  0.62856962    -0.03600
C1878       C  0.87234460  0.26081075  0.65043695    -0.03600
C1879       C  0.86635694  0.26157206  0.68447355     0.06400
C1880       C  0.83820864  0.27561065  0.69644159    -0.03800
Br1881     Br  0.83163028  0.27897508  0.74320069    -0.02300
Br1882     Br  0.77584741  0.30549834  0.68968547    -0.02400
Br1883     Br  0.91243619  0.24566973  0.63256219    -0.02300
Br1884     Br  0.85988702  0.27208574  0.58227521    -0.02300
C1885       C  0.89574163  0.16638972  0.02581650    -0.03400
C1886       C  0.87967470  0.18454501  0.00127059     0.06200
C1887       C  0.87772549  0.17159853  0.96868932    -0.03600
C1888       C  0.88856514  0.13786282  0.96154039    -0.03600
C1889       C  0.90088795  0.11767373  0.98725169     0.06400
C1890       C  0.90623259  0.13253383  0.01904069    -0.03800
Br1891     Br  0.92861871  0.10612922  0.55167392    -0.02300
Br1892     Br  0.90126947  0.18712981  0.06921497    -0.02400
Br1893     Br  0.88346117  0.11803792  0.91743102    -0.02300
Br1894     Br  0.85601626  0.19766888  0.93515797    -0.02300
C1895       C  0.58227845  0.37266480  0.99307785    -0.03400
C1896       C  0.59144188  0.38943311  0.52860072     0.06200
C1897       C  0.60679469  0.37019859  0.55308248    -0.03600
C1898       C  0.62010837  0.33821798  0.54409019    -0.03600
C1899       C  0.61764501  0.32672476  0.51105551     0.06400
C1900       C  0.59681462  0.34194733  0.48877875    -0.03800
Br1901     Br  0.58835503  0.31982185  0.94082061    -0.02300
Br1902     Br  0.55415155  0.39536022  0.96250451    -0.00600
Br1903     Br  0.64471625  0.31242538  0.57553164    -0.02300
Br1904     Br  0.61264677  0.38925424  0.59735771    -0.02300
C1905       C  0.58465818  0.44081139  0.85530300    -0.03400
C1906       C  0.57322362  0.47223491  0.86859939     0.06200
C1907       C  0.57503637  0.00643115  0.84962068    -0.03600
C1908       C  0.59551165  0.00862867  0.82310444    -0.03600
C1909       C  0.61199924  0.97846380  0.81423895     0.06400
C1910       C  0.60372783  0.44293674  0.82764962    -0.03800
Br1911     Br  0.62211436  0.40057051  0.81040661    -0.02300
Br1912     Br  0.57618296  0.39570704  0.87620498    -0.02400
Br1913     Br  0.60495967  0.05406448  0.80285178    -0.02300
Br1914     Br  0.55355075  0.04842455  0.86367834    -0.02300
C1915       C  0.91350902  0.54298133  0.69407051    -0.03400
C1916       C  0.88654275  0.51954884  0.69417801     0.06200
C1917       C  0.87758435  0.98958151  0.66772781    -0.03600
C1918       C  0.89608070  0.99040615  0.63976023    -0.03600
C1919       C  0.91915927  0.01889015  0.63627258     0.06400
C1920       C  0.92761493  0.04225519  0.66293022    -0.03800
Br1921     Br  0.96046317  0.07997118  0.65924896    -0.02300
Br1922     Br  0.92830016  0.56627284  0.73447685    -0.02400
Br1923     Br  0.88962254  0.95211641  0.60729216    -0.02300
Br1924     Br  0.84446339  0.46044006  0.67077979    -0.02300
C1925       C  0.98517990  0.33239611  0.55001137    -0.03400
C1926       C  0.95866495  0.35332696  0.55330668     0.06200
C1927       C  0.93844675  0.34776668  0.57973707    -0.03600
C1928       C  0.45066976  0.33322096  0.60804179    -0.03600
C1929       C  0.48145157  0.31902830  0.60757829     0.06400
C1930       C  0.99722110  0.31525235  0.57756682    -0.03800
Br1931     Br  0.03647330  0.29074002  0.57479550    -0.02300
Br1932     Br  0.00712705  0.33259406  0.50913924    -0.02400
Br1933     Br  0.42614072  0.33641627  0.64763957    -0.02300
Br1934     Br  0.39638010  0.36662273  0.57779220    -0.02300
C1935       C  0.55376296  0.17336086  0.93930099    -0.03400
C1936       C  0.52991990  0.16252356  0.96103338     0.06200
C1937       C  0.00099629  0.17920045  0.95974266    -0.03600
C1938       C  0.99055995  0.19276232  0.92983383    -0.03600
C1939       C  0.01148562  0.19267899  0.90332830     0.06400
C1940       C  0.04426813  0.18720597  0.90901232    -0.03800
Br1941     Br  0.57574157  0.19803046  0.87649397    -0.02300
Br1942     Br  0.59762674  0.16295683  0.94833564    -0.02400
Br1943     Br  0.94778546  0.20852807  0.92459418    -0.02300
Br1944     Br  0.97404385  0.17575906  0.99698840    -0.02300
C1945       C  0.89941914  0.85566327  0.34769929     0.84900
C1946       C  0.91679950  0.88357924  0.37060594    -0.55300
C1947       C  0.89803076  0.90363343  0.38987494     0.07800
C1948       C  0.86105671  0.89417605  0.38334914     0.18800
C1949       C  0.87717644  0.83342988  0.37122464    -0.56100
C1950       C  0.85659163  0.85270221  0.39023570     0.07900
C1951       C  0.87572590  0.87795660  0.32719693    -0.55600
C1952       C  0.85532947  0.89865739  0.34475287     0.08500
H1953       H  0.94274623  0.88677445  0.37195074     0.13000
H1954       H  0.84548462  0.91066218  0.39850395    -0.01200
H1955       H  0.87796125  0.80460902  0.37277015     0.13300
H1956       H  0.87567325  0.87789890  0.30050991     0.13100
C1957       C  0.60414835  0.60653924  0.10899488     0.84900
C1958       C  0.62550641  0.63305267  0.08953045    -0.55300
C1959       C  0.64491674  0.65740696  0.10714920     0.07800
C1960       C  0.63968423  0.65211648  0.14632584     0.18800
C1961       C  0.62760658  0.58875497  0.13307154    -0.56100
C1962       C  0.64696018  0.61136625  0.15320561     0.07900
C1963       C  0.58468526  0.63020316  0.13124573    -0.55600
C1964       C  0.60153085  0.65381800  0.15204284     0.08500
H1965       H  0.62554808  0.63212437  0.06283322     0.13000
H1966       H  0.65434530  0.67140279  0.16210463    -0.01200
H1967       H  0.62850266  0.55990081  0.13414740     0.13300
H1968       H  0.55872839  0.62743070  0.13123677     0.13100
N1969       N  0.55022664  0.99733623  0.44400916    -0.07700
N1970       N  0.57278053  0.98568566  0.42514445    -0.59800
N1971       N  0.01481397  0.56983547  0.45467408    -0.07400
N1972       N  0.00744214  0.60280762  0.44843703    -0.62000
N1973       N  0.54135292  0.57053011  0.47269835    -0.07000
N1974       N  0.55263267  0.60351417  0.47880327    -0.59800
N1975       N  0.52255768  0.99437219  0.42785670    -0.06700
N1976       N  0.52552748  0.98047748  0.39839312    -0.62300
C1977       C  0.55675877  0.97486398  0.39715759     0.94500
C1978       C  0.53102135  0.62330247  0.46383200     0.94200
N1979       N  0.92567898  0.53673778  0.48409053    -0.07900
N1980       N  0.90296688  0.55816807  0.99271534    -0.60400
N1981       N  0.94940067  0.96948044  0.43397004    -0.06000
N1982       N  0.93860962  0.95446853  0.40570310    -0.61700
N1983       N  0.93339621  0.95567950  0.45850323    -0.07900
N1984       N  0.91117929  0.93136327  0.44729764    -0.60700
N1985       N  0.94292140  0.54825322  0.45964375    -0.05700
N1986       N  0.93447704  0.57976259  0.45033460    -0.61700
Mn1987     Mn  0.98356845  0.52047416  0.44433449     1.18400
C1988       C  0.91046912  0.58636997  0.47057677     0.96500
C1989       C  0.91445592  0.93075179  0.41404145     0.97200
N1990       N  0.56282142  0.55261162  0.04335207    -0.07900
N1991       N  0.58536575  0.57707944  0.05306563    -0.64300
N1992       N  0.55907320  0.96664142  0.04267993    -0.06700
N1993       N  0.57047939  0.93657587  0.05208252    -0.64900
N1994       N  0.57314481  0.97894976  0.51571105    -0.07500
N1995       N  0.59527919  0.95745961  0.50679601    -0.64500
N1996       N  0.54650779  0.54120254  0.06869026    -0.06300
N1997       N  0.55824227  0.55749287  0.09622138    -0.65200
Mn1998     Mn  0.55763135  0.52390380  0.49616054     1.10700
C1999       C  0.58253292  0.58036385  0.08626604     0.97800
C2000       C  0.59413160  0.93198517  0.03097279     0.97800
N2001       N  0.96218421  0.93604388  0.03019214    -0.07500
N2002       N  0.95252344  0.90240449  0.02458926    -0.62800
N2003       N  0.97111828  0.51921342  0.07373221    -0.06800
N2004       N  0.96642616  0.52913495  0.10419069    -0.59600
N2005       N  0.94397764  0.51687384  0.05652780    -0.08100
N2006       N  0.92044174  0.52580716  0.07544478    -0.62400
N2007       N  0.98904098  0.93845480  0.04793916    -0.07100
N2008       N  0.49810804  0.90607583  0.05423646    -0.59600
Mn2009     Mn  0.94129908  0.98248052  0.00965131     1.20200
Mn2010     Mn  0.51705796  0.98948479  0.05986633     1.10100
Cl2011     Cl  0.99808713  0.50677915  0.50295852    -0.87600
C2012       C  0.97543751  0.88413572  0.03942654     0.94800
C2013       C  0.93487445  0.53307671  0.10505531     0.94600
N2014       N  0.81100706  0.71987652  0.52632686    -0.07700
N2015       N  0.82974611  0.69331970  0.52182663    -0.59800
N2016       N  0.78815415  0.79125809  0.06624438    -0.07400
N2017       N  0.80080238  0.80999181  0.09156014    -0.62000
N2018       N  0.77292783  0.76210060  0.07699636    -0.07000
N2019       N  0.77528316  0.76098162  0.10921755    -0.59800
N2020       N  0.82438187  0.74935053  0.51413612    -0.06700
N2021       N  0.85213437  0.74346059  0.50118709    -0.62300
C2022       C  0.85506137  0.70866016  0.50663397     0.94500
C2023       C  0.79348522  0.79035318  0.11825604     0.94200
N2024       N  0.75231432  0.85143000  0.99369680    -0.07900
N2025       N  0.73909368  0.88200736  0.00047241    -0.60400
N2026       N  0.81472712  0.81064769  0.45974063    -0.06000
N2027       N  0.84189702  0.82324996  0.44625902    -0.61700
N2028       N  0.79056318  0.81439056  0.43911445    -0.07900
N2029       N  0.80097247  0.82953193  0.41147380    -0.60700
N2030       N  0.77756565  0.84805528  0.01263889    -0.05700
N2031       N  0.78300611  0.87600224  0.03197398    -0.61700
Mn2032     Mn  0.80220077  0.79960465  0.01384320     1.18400
C2033       C  0.75910336  0.89713419  0.02420780     0.96500
C2034       C  0.83340468  0.83482546  0.41562015     0.97200
N2035       N  0.71040614  0.70719319  0.06493598    -0.07900
N2036       N  0.69948325  0.69142617  0.09225920    -0.64300
N2037       N  0.72695510  0.67218728  0.49015161    -0.06700
N2038       N  0.72034339  0.64228795  0.47361308    -0.64900
N2039       N  0.74979112  0.66851303  0.51212427    -0.07500
N2040       N  0.75946669  0.63543890  0.51096367    -0.64500
N2041       N  0.68717628  0.70850345  0.04267319    -0.06300
N2042       N  0.66034832  0.69346687  0.05491685    -0.65200
Mn2043     Mn  0.76134439  0.71471260  0.04626190     1.10700
C2044       C  0.66751442  0.68340259  0.08655591     0.97800
C2045       C  0.74055170  0.61937847  0.48681296     0.97800
N2046       N  0.72955128  0.76000347  0.42721429    -0.07500
N2047       N  0.73230526  0.76064758  0.39523845    -0.62800
N2048       N  0.67772740  0.76972824  0.98703648    -0.06800
N2049       N  0.64912667  0.77456814  0.99834778    -0.59600
N2050       N  0.69127497  0.79983934  0.97633982    -0.08100
N2051       N  0.67177544  0.82574386  0.98004690    -0.62400
N2052       N  0.71452126  0.73009954  0.43637641    -0.07100
N2053       N  0.70637352  0.71044554  0.40986991    -0.59600
Mn2054     Mn  0.73985802  0.80624432  0.45852866     1.20200
Mn2055     Mn  0.70085902  0.71985682  0.48887341     1.10100
Cl2056     Cl  0.75109903  0.76044378  0.00182247    -0.87600
C2057       C  0.71788320  0.72979641  0.38428742     0.94800
C2058       C  0.64587586  0.80937432  0.99329852     0.94600
N2059       N  0.94155039  0.74487693  0.20741005    -0.07700
N2060       N  0.91365568  0.72945782  0.19897386    -0.59800
N2061       N  0.99823240  0.80339307  0.18862406    -0.07400
N2062       N  0.49816877  0.82700659  0.16487709    -0.62000
N2063       N  0.00422801  0.77185774  0.17596985    -0.07000
N2064       N  0.50818088  0.77358083  0.14384465    -0.59800
N2065       N  0.93715301  0.77649444  0.22062443    -0.06700
N2066       N  0.90663286  0.78338259  0.22021350    -0.62300
C2067       C  0.89204826  0.75367265  0.20643142     0.94500
C2068       C  0.50436266  0.80803962  0.13735950     0.94200
N2069       N  0.53572108  0.82929293  0.28110261    -0.07900
N2070       N  0.56651054  0.83797700  0.27942677    -0.60400
N2071       N  0.95351818  0.81879752  0.28646178    -0.06000
N2072       N  0.92681427  0.83511482  0.29353067    -0.61700
N2073       N  0.96795071  0.80880521  0.31351377    -0.07900
N2074       N  0.95088580  0.81831042  0.33951231    -0.60700
N2075       N  0.52047827  0.83979389  0.25462942    -0.05700
N2076       N  0.54068255  0.85584225  0.23462408    -0.61700
Mn2077     Mn  0.97676021  0.81077242  0.23752020     1.18400
C2078       C  0.56908104  0.85471499  0.25057263     0.96500
C2079       C  0.92470941  0.83468950  0.32695140     0.97200
N2080       N  0.53811479  0.69999731  0.19240626    -0.07900
N2081       N  0.55447712  0.69255134  0.16557030    -0.64300
N2082       N  0.98270806  0.66671994  0.25101783    -0.06700
N2083       N  0.95858473  0.65466328  0.26908491    -0.64900
N2084       N  0.97190155  0.67465790  0.22174780    -0.07500
N2085       N  0.94117964  0.66657379  0.21904280    -0.64500
N2086       N  0.55247426  0.68799618  0.21865256    -0.06300
N2087       N  0.57931974  0.67244396  0.20970250    -0.65200
Mn2088     Mn  0.98939094  0.72275866  0.19864419     1.10700
C2089       C  0.58111063  0.67600040  0.17611628     0.97800
C2090       C  0.93259521  0.65463392  0.24852392     0.97800
N2091       N  0.50053117  0.73523196  0.33113633    -0.07500
N2092       N  0.99702828  0.73388277  0.36326956    -0.62800
N2093       N  0.56714778  0.72738248  0.28681629    -0.06800
N2094       N  0.59625801  0.71642131  0.28729260    -0.59600
N2095       N  0.56521177  0.75789173  0.30315589    -0.08100
N2096       N  0.59391740  0.76759673  0.31582386    -0.62400
N2097       N  0.50571385  0.70333204  0.31847353    -0.07100
N2098       N  0.00608384  0.68005628  0.34254795    -0.59600
Mn2099     Mn  0.51735738  0.78358943  0.30837806     1.20200
Mn2100     Mn  0.52723848  0.69514785  0.26883964     1.10100
Cl2101     Cl  0.00274589  0.75325742  0.25366531    -0.87600
C2102       C  0.00045916  0.69946626  0.37006532     0.94800
C2103       C  0.61287799  0.74121710  0.30546930     0.94600
N2104       N  0.79005599  0.94398109  0.30258625    -0.07700
N2105       N  0.80075511  0.91520094  0.31763832    -0.59800
N2106       N  0.77132531  0.52393150  0.33742763    -0.07400
N2107       N  0.77509971  0.54122722  0.36575819    -0.62000
N2108       N  0.74904785  0.49810886  0.33907288    -0.07000
N2109       N  0.73688626  0.49737463  0.36877435    -0.59800
N2110       N  0.81290043  0.96958611  0.30272285    -0.06700
N2111       N  0.83927996  0.95815963  0.31761639    -0.62300
C2112       C  0.83188601  0.92383965  0.32694479     0.94500
C2113       C  0.75351721  0.52444338  0.38508581     0.94200
N2114       N  0.77458111  0.59733206  0.25919089    -0.07900
N2115       N  0.78266602  0.63136260  0.25526044    -0.60400
N2116       N  0.82471330  0.03252105  0.24846503    -0.06000
N2117       N  0.85345504  0.02137654  0.24332227    -0.61700
N2118       N  0.81230880  0.04609444  0.22154110    -0.07900
N2119       N  0.83254190  0.04428427  0.19754385    -0.60700
N2120       N  0.78913882  0.58566653  0.28594000    -0.05700
N2121       N  0.80733267  0.61204675  0.29942676    -0.61700
Mn2122     Mn  0.80071406  0.52861828  0.29441024     1.18400
C2123       C  0.80402559  0.64033347  0.27967465     0.96500
C2124       C  0.85772577  0.02917163  0.21164124     0.97200
N2125       N  0.69088095  0.47778315  0.29133341    -0.07900
N2126       N  0.66914336  0.47081173  0.31321837    -0.64300
N2127       N  0.71971574  0.94388969  0.22131333    -0.06700
N2128       N  0.70422054  0.92137944  0.20089803    -0.64900
N2129       N  0.72607811  0.92820729  0.24938224    -0.07500
N2130       N  0.71050540  0.89649439  0.24904572    -0.64500
N2131       N  0.67786634  0.49092879  0.26461638    -0.06300
N2132       N  0.64670545  0.49287109  0.26792368    -0.65200
Mn2133     Mn  0.73866959  0.96068315  0.29465948     1.10700
C2134       C  0.64202360  0.48010511  0.29832920     0.97800
C2135       C  0.69599174  0.89311693  0.21880466     0.97800
N2136       N  0.75442099  0.02777153  0.17236474    -0.07500
N2137       N  0.76879812  0.02265048  0.14399218    -0.62800
N2138       N  0.68977000  0.55393558  0.20948929    -0.06800
N2139       N  0.66337589  0.56230569  0.19297131    -0.59600
N2140       N  0.71243245  0.57928503  0.20615161    -0.08100
N2141       N  0.70107387  0.60525363  0.18735116    -0.62400
N2142       N  0.72982878  0.00521384  0.17458086    -0.07100
N2143       N  0.72578975  0.98506237  0.14821110    -0.59600
Mn2144     Mn  0.76460905  0.56273287  0.21552507     1.20200
Mn2145     Mn  0.70367773  0.99909169  0.21820256     1.10100
Cl2146     Cl  0.75247777  0.51310393  0.25701089    -0.87600
C2147       C  0.75013139  0.99577962  0.12929447     0.94800
C2148       C  0.66975777  0.59496594  0.17958337     0.94600
C2149       C  0.87450559  0.65369590  0.23278649    -0.03400
C2150       C  0.89846072  0.65563881  0.25818935     0.06200
C2151       C  0.88936097  0.66557360  0.29047524    -0.03600
C2152       C  0.85664826  0.66837609  0.29737417    -0.03600
C2153       C  0.83320700  0.66276644  0.27235288     0.06400
C2154       C  0.84320440  0.66231230  0.23958324    -0.03800
Br2155     Br  0.81433946  0.67338671  0.20383094    -0.02300
Br2156     Br  0.88215139  0.63543949  0.18894825    -0.02400
Br2157     Br  0.84283465  0.68025430  0.34082115    -0.02300
Br2158     Br  0.92018724  0.67527473  0.32584898    -0.02300
C2159       C  0.65300363  0.84460010  0.22194714    -0.03400
C2160       C  0.66199677  0.88042914  0.21618550     0.06200
C2161       C  0.63774794  0.90583214  0.21344991    -0.03600
C2162       C  0.60719020  0.89726278  0.22497756    -0.03600
C2163       C  0.59957930  0.86250148  0.23493694     0.06400
C2164       C  0.62119239  0.83536037  0.22988892    -0.03800
Br2165     Br  0.60664038  0.78588603  0.23148851    -0.02300
Br2166     Br  0.68394636  0.80861725  0.21753430    -0.02400
Br2167     Br  0.57638466  0.93377228  0.22937746    -0.02300
Br2168     Br  0.64398946  0.95215415  0.19337261    -0.02300
C2169       C  0.74779943  0.91245635  0.08044208    -0.03400
C2170       C  0.75095703  0.92440107  0.04813201     0.06200
C2171       C  0.75685469  0.96102458  0.04219823    -0.03600
C2172       C  0.75882576  0.98572593  0.06892738    -0.03600
C2173       C  0.75795667  0.97298797  0.10130248     0.06400
C2174       C  0.75490011  0.93593730  0.10664406    -0.03800
Br2175     Br  0.76185928  0.91662157  0.14982573    -0.02300
Br2176     Br  0.73457034  0.86329706  0.08897021    -0.02400
Br2177     Br  0.76276879  0.03627261  0.06137932    -0.02300
Br2178     Br  0.76231894  0.97674132  0.99783631    -0.02300
C2179       C  0.77289179  0.56959802  0.46628821    -0.03400
C2180       C  0.74281901  0.58299875  0.47277843     0.06200
C2181       C  0.71510128  0.56650063  0.45735198    -0.03600
C2182       C  0.71801327  0.54367986  0.42993668    -0.03600
C2183       C  0.74873380  0.53605482  0.41929853     0.06400
C2184       C  0.77578703  0.54600777  0.43938467    -0.03800
Br2185     Br  0.81708959  0.52857333  0.42906957    -0.02300
Br2186     Br  0.81052989  0.58535154  0.49187697    -0.02400
Br2187     Br  0.68012574  0.52743708  0.40482047    -0.02300
Br2188     Br  0.67305445  0.57719540  0.47231749    -0.02300
C2189       C  0.66855667  0.76444431  0.31988379    -0.03400
C2190       C  0.64580650  0.73554767  0.31704864     0.06200
C2191       C  0.65525583  0.70055829  0.32484676    -0.03600
C2192       C  0.68408900  0.69666435  0.34229124    -0.03600
C2193       C  0.70346858  0.72706006  0.35084270     0.06400
C2194       C  0.69863736  0.75913118  0.33413077    -0.03800
Br2195     Br  0.73256203  0.79585083  0.33111583    -0.02300
Br2196     Br  0.65882614  0.81140174  0.30546017    -0.02400
Br2197     Br  0.69674107  0.65030022  0.35613518    -0.02300
Br2198     Br  0.62899124  0.65748566  0.31500238    -0.02300
C2199       C  0.81398315  0.78822957  0.17659425    -0.03400
C2200       C  0.81871265  0.78436333  0.14261091     0.06200
C2201       C  0.84462364  0.76533583  0.13128303    -0.03600
C2202       C  0.86348223  0.74749475  0.15325882    -0.03600
C2203       C  0.86233376  0.75603820  0.18704647     0.06400
C2204       C  0.83707927  0.77600335  0.19890417    -0.03800
Br2205     Br  0.83366393  0.78531356  0.24543151    -0.02300
Br2206     Br  0.77680652  0.81100363  0.19206069    -0.02400
Br2207     Br  0.89033209  0.71161878  0.13531517    -0.02300
Br2208     Br  0.85607071  0.76373852  0.08559267    -0.02300
C2209       C  0.90065507  0.67305478  0.51341306    -0.03400
C2210       C  0.87874352  0.68773558  0.49197936     0.06200
C2211       C  0.87155115  0.67247674  0.46077306    -0.03600
C2212       C  0.88341741  0.63943421  0.45274070    -0.03600
C2213       C  0.90118243  0.62205665  0.47667647     0.06400
C2214       C  0.91095616  0.63916977  0.50659892    -0.03800
Br2215     Br  0.93487539  0.61386009  0.04021817    -0.02300
Br2216     Br  0.91459287  0.69884606  0.55279959    -0.02400
Br2217     Br  0.87239283  0.61633061  0.41095390    -0.02300
Br2218     Br  0.84230369  0.69476806  0.43124661    -0.02300
C2219       C  0.59047189  0.87781975  0.49379682    -0.03400
C2220       C  0.60346128  0.89670681  0.02369532     0.06200
C2221       C  0.62106131  0.87850510  0.04713114    -0.03600
C2222       C  0.62950620  0.84393730  0.03957844    -0.03600
C2223       C  0.62200115  0.82958640  0.00806697     0.06400
C2224       C  0.60125317  0.84591653  0.98647321    -0.03800
Br2225     Br  0.58879184  0.81918246  0.44605336    -0.02300
Br2226     Br  0.56017596  0.89869028  0.46419480    -0.00600
Br2227     Br  0.65468681  0.81788471  0.07030001    -0.02300
Br2228     Br  0.63585102  0.90189718  0.08778711    -0.02300
C2229       C  0.58481185  0.94298306  0.35434681    -0.03400
C2230       C  0.57212134  0.97441718  0.36598160     0.06200
C2231       C  0.57998022  0.50534231  0.35456918    -0.03600
C2232       C  0.59826967  0.50711197  0.32633007    -0.03600
C2233       C  0.61187382  0.47608626  0.31466728     0.06400
C2234       C  0.60457165  0.94463617  0.32733460    -0.03800
Br2235     Br  0.62527216  0.90239884  0.31292149    -0.02300
Br2236     Br  0.57738954  0.89870210  0.37697044    -0.02400
Br2237     Br  0.60890289  0.55272650  0.30693512    -0.02300
Br2238     Br  0.56344252  0.54863338  0.37265748    -0.02300
C2239       C  0.91151228  0.04103093  0.19261641    -0.03400
C2240       C  0.88404240  0.01833815  0.19277290     0.06200
C2241       C  0.87985420  0.49435164  0.16779096    -0.03600
C2242       C  0.89670924  0.49810650  0.13887664    -0.03600
C2243       C  0.91864449  0.52781508  0.13584308     0.06400
C2244       C  0.92867459  0.54845563  0.16392331    -0.03800
Br2245     Br  0.96174249  0.58614321  0.16165387    -0.02300
Br2246     Br  0.92265890  0.07084830  0.23052387    -0.02400
Br2247     Br  0.89035789  0.46128120  0.10506215    -0.02300
Br2248     Br  0.84094536  0.95921192  0.17110576    -0.02300
C2249       C  0.00112252  0.82900869  0.04793957    -0.03400
C2250       C  0.97229359  0.84623006  0.04681100     0.06200
C2251       C  0.94947599  0.83786734  0.07042618    -0.03600
C2252       C  0.45991256  0.82465687  0.10049084    -0.03600
C2253       C  0.49263440  0.81786663  0.10507216     0.06400
C2254       C  0.01252866  0.81676361  0.07803773    -0.03800
Br2255     Br  0.05555564  0.80121777  0.08231067    -0.02300
Br2256     Br  0.02498421  0.82557698  0.00869685    -0.02400
Br2257     Br  0.42948977  0.81663920  0.13490644    -0.02300
Br2258     Br  0.40583801  0.85016233  0.06326131    -0.02300
C2259       C  0.55723159  0.67144703  0.43613355    -0.03400
C2260       C  0.53488787  0.66178863  0.45969169     0.06200
C2261       C  0.00608364  0.67924161  0.45993172    -0.03600
C2262       C  0.99364384  0.69135854  0.43017822    -0.03600
C2263       C  0.01289226  0.69017716  0.40231221     0.06400
C2264       C  0.04590117  0.68463205  0.40648306    -0.03800
Br2265     Br  0.57582028  0.69505707  0.37212431    -0.02300
Br2266     Br  0.60138989  0.66121620  0.44325634    -0.02400
Br2267     Br  0.95085257  0.70768835  0.42754883    -0.02300
Br2268     Br  0.98427986  0.68319631  0.50037105    -0.02300
C2269       C  0.90077387  0.85607255  0.84846787     0.84900
C2270       C  0.91812129  0.88411403  0.87133025    -0.55300
C2271       C  0.89933698  0.90407288  0.89071463     0.07800
C2272       C  0.86234971  0.89443238  0.88425735     0.18800
C2273       C  0.87865993  0.83377733  0.87211372    -0.56100
C2274       C  0.85803438  0.85297919  0.89116984     0.07900
C2275       C  0.87688365  0.87823432  0.82805277    -0.55600
C2276       C  0.85640465  0.89879922  0.84567072     0.08500
H2277       H  0.94406272  0.88740130  0.87260937     0.13000
H2278       H  0.84674475  0.91083840  0.89944984    -0.01200
H2279       H  0.87947978  0.80495652  0.87361300     0.13300
H2280       H  0.87671467  0.87812991  0.80136364     0.13100
C2281       C  0.60486596  0.60729940  0.61004135     0.84900
C2282       C  0.62629271  0.63356274  0.59039675    -0.55300
C2283       C  0.64574719  0.65798008  0.60789394     0.07800
C2284       C  0.64052763  0.65314043  0.64701921     0.18800
C2285       C  0.62830113  0.58970628  0.63426466    -0.56100
C2286       C  0.64768160  0.61254871  0.65417953     0.07900
C2287       C  0.58550064  0.63120903  0.63207746    -0.55600
C2288       C  0.60246750  0.65491054  0.65266427     0.08500
H2289       H  0.62635752  0.63242025  0.56370346     0.13000
H2290       H  0.65521165  0.67253834  0.66266368    -0.01200
H2291       H  0.62915078  0.56086776  0.63562299     0.13300
H2292       H  0.55954232  0.62849433  0.63215218     0.13100
N2293       N  0.55117456  0.99761660  0.94550224    -0.07700
N2294       N  0.57357423  0.98582301  0.92649697    -0.59800
N2295       N  0.01272396  0.57032447  0.95419975    -0.07400
N2296       N  0.00500962  0.60338076  0.94875705    -0.62000
N2297       N  0.53972565  0.57045477  0.97187117    -0.07000
N2298       N  0.55075368  0.60341235  0.97853310    -0.59800
N2299       N  0.52341117  0.99467021  0.92952569    -0.06700
N2300       N  0.52612789  0.98051849  0.90013634    -0.62300
C2301       C  0.55732872  0.97487725  0.89864906     0.94500
C2302       C  0.52874086  0.62334725  0.96440471     0.94200
N2303       N  0.92412885  0.53533420  0.98415777    -0.07900
N2304       N  0.90469553  0.55997830  0.49209858    -0.60400
N2305       N  0.95052445  0.97001576  0.93515735    -0.06000
N2306       N  0.93993282  0.95491803  0.90684338    -0.61700
N2307       N  0.93437611  0.95625779  0.95961073    -0.07900
N2308       N  0.91224876  0.93187785  0.94828549    -0.60700
N2309       N  0.94098103  0.54747553  0.95966494    -0.05700
N2310       N  0.93204078  0.57893615  0.95082381    -0.61700
Mn2311     Mn  0.98181764  0.52071109  0.94345921     1.18400
C2312       C  0.90819802  0.58493674  0.97143618     0.96500
C2313       C  0.91573814  0.93117116  0.91503611     0.97200
N2314       N  0.56332234  0.55333468  0.54468657    -0.07900
N2315       N  0.58603510  0.57759737  0.55435271    -0.64300
N2316       N  0.55794944  0.96643355  0.54110208    -0.06700
N2317       N  0.56899619  0.93615259  0.55034668    -0.64900
N2318       N  0.57436069  0.97941323  0.01745355    -0.07500
N2319       N  0.59697175  0.95839314  0.00890575    -0.64500
N2320       N  0.54681367  0.54218716  0.56999714    -0.06300
N2321       N  0.55860960  0.55852663  0.59749294    -0.65200
Mn2322     Mn  0.55662008  0.52356677  0.99449719     1.10700
C2323       C  0.58313300  0.58109024  0.58749924     0.97800
C2324       C  0.59232061  0.93117894  0.52896782     0.97800
N2325       N  0.96141642  0.93559726  0.52888508    -0.07500
N2326       N  0.95187995  0.90190961  0.52339019    -0.62800
N2327       N  0.97128354  0.52101611  0.57450379    -0.06800
N2328       N  0.96626478  0.53088344  0.60489861    -0.59600
N2329       N  0.94434270  0.51896189  0.55695689    -0.08100
N2330       N  0.92063269  0.52800892  0.57558952    -0.62400
N2331       N  0.98822332  0.93819874  0.54667539    -0.07100
N2332       N  0.49731297  0.90610926  0.55337183    -0.59600
Mn2333     Mn  0.94030865  0.98184493  0.50846249     1.20200
Mn2334     Mn  0.51607550  0.98942237  0.55840444     1.10100
Cl2335     Cl  0.99718324  0.50625005  0.00170292    -0.87600
C2336       C  0.97482549  0.88380562  0.53837179     0.94800
C2337       C  0.93473129  0.53504300  0.60538781     0.94600
N2338       N  0.81036112  0.72010747  0.02691778    -0.07700
N2339       N  0.82889592  0.69333425  0.02271379    -0.59800
N2340       N  0.78871222  0.79084476  0.56598186    -0.07400
N2341       N  0.80162452  0.80959224  0.59116030    -0.62000
N2342       N  0.77393279  0.76148562  0.57687822    -0.07000
N2343       N  0.77692666  0.76018482  0.60904736    -0.59800
N2344       N  0.82407520  0.74940277  0.01473868    -0.06700
N2345       N  0.85188504  0.74315414  0.00207226    -0.62300
C2346       C  0.85445882  0.70832756  0.00771609     0.94500
C2347       C  0.79497756  0.78971894  0.61788147     0.94200
N2348       N  0.75162060  0.85061092  0.49361981    -0.07900
N2349       N  0.73789809  0.88075456  0.50088169    -0.60400
N2350       N  0.81548665  0.81098537  0.96033873    -0.06000
N2351       N  0.84283575  0.82339645  0.94706490    -0.61700
N2352       N  0.79150719  0.81498767  0.93955286    -0.07900
N2353       N  0.80220581  0.83008974  0.91201214    -0.60700
N2354       N  0.77707330  0.84749289  0.51232923    -0.05700
N2355       N  0.78220173  0.87526764  0.53191841    -0.61700
Mn2356     Mn  0.80208517  0.79930047  0.51338761     1.18400
C2357       C  0.75784201  0.89594327  0.52462559     0.96500
C2358       C  0.83463569  0.83508497  0.91636870     0.97200
N2359       N  0.71129243  0.70676809  0.56524793    -0.07900
N2360       N  0.70044674  0.69127534  0.59271955    -0.64300
N2361       N  0.72678926  0.67263985  0.98994573    -0.06700
N2362       N  0.72015072  0.64259973  0.97361388    -0.64900
N2363       N  0.74930477  0.66898253  0.01227187    -0.07500
N2364       N  0.75877359  0.63582480  0.01154607    -0.64500
N2365       N  0.68787971  0.70827369  0.54322740    -0.06300
N2366       N  0.66102281  0.69371128  0.55572036    -0.65200
Mn2367     Mn  0.76210977  0.71419365  0.54612564     1.10700
C2368       C  0.66836948  0.68369565  0.58727632     0.97800
C2369       C  0.74006982  0.61967409  0.98729184     0.97800
N2370       N  0.73053797  0.76098329  0.92704698    -0.07500
N2371       N  0.73381206  0.76179121  0.89513196    -0.62800
N2372       N  0.67748180  0.76892466  0.48798541    -0.06800
N2373       N  0.64911099  0.77374304  0.49990406    -0.59600
N2374       N  0.69081456  0.79902505  0.47706607    -0.08100
N2375       N  0.67142111  0.82494975  0.48123650    -0.62400
N2376       N  0.71540959  0.73100332  0.93592169    -0.07100
N2377       N  0.70774442  0.71145196  0.90922126    -0.59600
Mn2378     Mn  0.74060530  0.80706805  0.95848739     1.20200
Mn2379     Mn  0.70090350  0.72046918  0.98829981     1.10100
Cl2380     Cl  0.75112267  0.75985865  0.50182350    -0.87600
C2381       C  0.71963076  0.73095530  0.88388328     0.94800
C2382       C  0.64582236  0.80856911  0.49502767     0.94600
N2383       N  0.94265226  0.74381953  0.70839696    -0.07700
N2384       N  0.91480688  0.72819896  0.69996633    -0.59800
N2385       N  0.99874776  0.80321094  0.68865823    -0.07400
N2386       N  0.49842218  0.82692445  0.66532798    -0.62000
N2387       N  0.00461055  0.77169525  0.67589543    -0.07000
N2388       N  0.50804830  0.77350734  0.64405502    -0.59800
N2389       N  0.93815384  0.77555172  0.72131753    -0.06700
N2390       N  0.90766094  0.78241173  0.72053341    -0.62300
C2391       C  0.89320469  0.75264537  0.70676870     0.94500
C2392       C  0.50429985  0.80803273  0.63766916     0.94200
N2393       N  0.53637540  0.82988227  0.78107594    -0.07900
N2394       N  0.56706471  0.83882485  0.77899127    -0.60400
N2395       N  0.95451639  0.81880973  0.78685173    -0.06000
N2396       N  0.92781246  0.83508954  0.79407942    -0.61700
N2397       N  0.96931052  0.80927473  0.81385927    -0.07900
N2398       N  0.95247989  0.81901713  0.83996503    -0.60700
N2399       N  0.52076799  0.84008911  0.75470904    -0.05700
N2400       N  0.54061565  0.85614579  0.73436715    -0.61700
Mn2401     Mn  0.97751168  0.81053765  0.73772316     1.18400
C2402       C  0.56918180  0.85537776  0.75000474     0.96500
C2403       C  0.92606462  0.83509555  0.82755958     0.97200
N2404       N  0.53920870  0.70059912  0.69310820    -0.07900
N2405       N  0.55548799  0.69332636  0.66621567    -0.64300
N2406       N  0.98498291  0.66676794  0.75182194    -0.06700
N2407       N  0.96095765  0.65449866  0.76990363    -0.64900
N2408       N  0.97413121  0.67426739  0.72247440    -0.07500
N2409       N  0.94353001  0.66563402  0.71973346    -0.64500
N2410       N  0.55380713  0.68879184  0.71930681    -0.06300
N2411       N  0.58073048  0.67352895  0.71027238    -0.65200
Mn2412     Mn  0.99069863  0.72253368  0.69919168     1.10700
C2413       C  0.58227961  0.67709347  0.67669986     0.97800
C2414       C  0.93498522  0.65387911  0.74926969     0.97800
N2415       N  0.50206652  0.73577662  0.83161952    -0.07500
N2416       N  0.99809773  0.73487808  0.86341341    -0.62800
N2417       N  0.56866106  0.72797681  0.78745291    -0.06800
N2418       N  0.59775325  0.71692983  0.78813782    -0.59600
N2419       N  0.56670682  0.75862751  0.80356335    -0.08100
N2420       N  0.59541925  0.76836302  0.81625172    -0.62400
N2421       N  0.50722688  0.70383599  0.81904984    -0.07100
N2422       N  0.00723578  0.68088888  0.84300697    -0.59600
Mn2423     Mn  0.51862955  0.78416180  0.80876224     1.20200
Mn2424     Mn  0.52882618  0.69558887  0.76952880     1.10100
Cl2425     Cl  0.00421586  0.75356014  0.75400319    -0.87600
C2426       C  0.00104089  0.70041048  0.87029433     0.94800
C2427       C  0.61438248  0.74183916  0.80616928     0.94600
N2428       N  0.79046650  0.94362420  0.80389082    -0.07700
N2429       N  0.80137550  0.91499549  0.81906179    -0.59800
N2430       N  0.77180947  0.52465845  0.83813662    -0.07400
N2431       N  0.77549742  0.54184313  0.86653643    -0.62000
N2432       N  0.74942521  0.49892992  0.83958770    -0.07000
N2433       N  0.73710815  0.49814609  0.86921508    -0.59800
N2434       N  0.81331054  0.96920941  0.80359500    -0.06700
N2435       N  0.83986651  0.95794358  0.81825567    -0.62300
C2436       C  0.83263200  0.92372869  0.82793669     0.94500
C2437       C  0.75375530  0.52507236  0.88570327     0.94200
N2438       N  0.77532161  0.59895606  0.76062087    -0.07900
N2439       N  0.78407693  0.63282463  0.75670003    -0.60400
N2440       N  0.82487347  0.03119569  0.74866668    -0.06000
N2441       N  0.85325554  0.01912843  0.74326403    -0.61700
N2442       N  0.81233997  0.04445449  0.72165214    -0.07900
N2443       N  0.83209206  0.04144271  0.69734344    -0.60700
N2444       N  0.78985735  0.58687740  0.78722073    -0.05700
N2445       N  0.80866187  0.61280312  0.80057641    -0.61700
Mn2446     Mn  0.80115748  0.52965167  0.79509859     1.18400
C2447       C  0.80586513  0.64118802  0.78086278     0.96500
C2448       C  0.85709729  0.02588215  0.71129626     0.97200
N2449       N  0.69103936  0.47919789  0.79192645    -0.07900
N2450       N  0.66909504  0.47160351  0.81347955    -0.64300
N2451       N  0.72019701  0.94319979  0.72271011    -0.06700
N2452       N  0.70503668  0.92063497  0.70211388    -0.64900
N2453       N  0.72607087  0.92764329  0.75093650    -0.07500
N2454       N  0.71025140  0.89605728  0.75054324    -0.64500
N2455       N  0.67820712  0.49278038  0.76532562    -0.06300
N2456       N  0.64701656  0.49451618  0.76841522    -0.65200
Mn2457     Mn  0.73895235  0.96044683  0.79597802     1.10700
C2458       C  0.64205990  0.48105633  0.79849149     0.97800
C2459       C  0.69628940  0.89257834  0.72002362     0.97800
N2460       N  0.75439297  0.02633350  0.67290150    -0.07500
N2461       N  0.76858608  0.02101459  0.64446745    -0.62800
N2462       N  0.69035115  0.55591175  0.71085570    -0.06800
N2463       N  0.66397699  0.56411054  0.69428739    -0.59600
N2464       N  0.71299193  0.58127303  0.70749094    -0.08100
N2465       N  0.70163568  0.60707651  0.68851385    -0.62400
N2466       N  0.72988539  0.00373516  0.67545420    -0.07100
N2467       N  0.72572371  0.98330626  0.64927981    -0.59600
Mn2468     Mn  0.76513495  0.56471010  0.71670553     1.20200
Mn2469     Mn  0.70388257  0.99825259  0.71915628     1.10100
Cl2470     Cl  0.75284670  0.51469423  0.75773413    -0.87600
C2471       C  0.74989221  0.99395546  0.63012642     0.94800
C2472       C  0.67036635  0.59662096  0.68074366     0.94600
C2473       C  0.87683887  0.65342669  0.73341611    -0.03400
C2474       C  0.90081194  0.65490691  0.75886751     0.06200
C2475       C  0.89175086  0.66442556  0.79127029    -0.03600
C2476       C  0.85912142  0.66780251  0.79816645    -0.03600
C2477       C  0.83558613  0.66253996  0.77319568     0.06400
C2478       C  0.84546257  0.66174176  0.74035409    -0.03800
Br2479     Br  0.81641622  0.67232082  0.70455292    -0.02300
Br2480     Br  0.88461605  0.63683484  0.68897235    -0.02400
Br2481     Br  0.84556876  0.68007742  0.84163689    -0.02300
Br2482     Br  0.92250690  0.67260642  0.82697041    -0.02300
C2483       C  0.65295488  0.84433470  0.72208289    -0.03400
C2484       C  0.66228097  0.88013640  0.71662575     0.06200
C2485       C  0.63819485  0.90565386  0.71294296    -0.03600
C2486       C  0.60718984  0.89715737  0.72329619    -0.03600
C2487       C  0.59943714  0.86266719  0.73383883     0.06400
C2488       C  0.62097407  0.83535436  0.72945282    -0.03800
Br2489     Br  0.60603625  0.78599913  0.73118368    -0.02300
Br2490     Br  0.68368526  0.80806435  0.71815511    -0.02400
Br2491     Br  0.57580394  0.93330349  0.72507334    -0.02300
Br2492     Br  0.64537432  0.95226838  0.69363994    -0.02300
C2493       C  0.74762847  0.91061865  0.58127336    -0.03400
C2494       C  0.74948781  0.92273607  0.54889043     0.06200
C2495       C  0.75412545  0.95947461  0.54286253    -0.03600
C2496       C  0.75694921  0.98407650  0.56961942    -0.03600
C2497       C  0.75734453  0.97127591  0.60198054     0.06400
C2498       C  0.75482542  0.93421209  0.60737590    -0.03800
Br2499     Br  0.76235960  0.91508114  0.65054717    -0.02300
Br2500     Br  0.73589129  0.86109615  0.58998620    -0.02400
Br2501     Br  0.76045252  0.03465759  0.56214147    -0.02300
Br2502     Br  0.75625993  0.97553380  0.49827122    -0.02300
C2503       C  0.77264821  0.57005235  0.96708653    -0.03400
C2504       C  0.74248650  0.58322802  0.97351515     0.06200
C2505       C  0.71489255  0.56655803  0.95804791    -0.03600
C2506       C  0.71798359  0.54391744  0.93053511    -0.03600
C2507       C  0.74879215  0.53658157  0.91992015     0.06400
C2508       C  0.77573967  0.54658107  0.94014091    -0.03800
Br2509     Br  0.81711986  0.52922958  0.93007430    -0.02300
Br2510     Br  0.81011884  0.58598015  0.99284639    -0.02400
Br2511     Br  0.68020585  0.52752009  0.90533485    -0.02300
Br2512     Br  0.67281017  0.57682420  0.97315390    -0.02300
C2513       C  0.67020454  0.76543228  0.81980479    -0.03400
C2514       C  0.64750920  0.73641965  0.81743807     0.06200
C2515       C  0.65730955  0.70149757  0.82506232    -0.03600
C2516       C  0.68667685  0.69775071  0.84155813    -0.03600
C2517       C  0.70576758  0.72826438  0.85020647     0.06400
C2518       C  0.70048878  0.76037201  0.83375218    -0.03800
Br2519     Br  0.73410728  0.79743687  0.83082480    -0.02300
Br2520     Br  0.66011829  0.81216636  0.80510168    -0.02400
Br2521     Br  0.70050065  0.65151707  0.85440245    -0.02300
Br2522     Br  0.63079509  0.65835030  0.81656973    -0.02300
C2523       C  0.81523100  0.78636517  0.67606705    -0.03400
C2524       C  0.82048366  0.78415702  0.64206627     0.06200
C2525       C  0.84739699  0.76710669  0.63034296    -0.03600
C2526       C  0.86735389  0.75006100  0.65197833    -0.03600
C2527       C  0.86444756  0.75570799  0.68612896     0.06400
C2528       C  0.83812142  0.77359750  0.69824490    -0.03800
Br2529     Br  0.83320455  0.77957031  0.74503113    -0.02300
Br2530     Br  0.77750675  0.80779505  0.69186547    -0.02400
Br2531     Br  0.89878103  0.71984684  0.63311002    -0.02300
Br2532     Br  0.85834835  0.76679301  0.58439885    -0.02300
C2533       C  0.89899077  0.67138306  0.01504564    -0.03400
C2534       C  0.87790985  0.68694891  0.99329744     0.06200
C2535       C  0.87075912  0.67202416  0.96195113    -0.03600
C2536       C  0.88174122  0.63853601  0.95400948    -0.03600
C2537       C  0.89881248  0.62049896  0.97805524     0.06400
C2538       C  0.90869572  0.63725896  0.00811540    -0.03800
Br2539     Br  0.93708677  0.61615307  0.53902569    -0.02300
Br2540     Br  0.91278721  0.69648498  0.05491389    -0.02400
Br2541     Br  0.87058670  0.61592477  0.91202575    -0.02300
Br2542     Br  0.84263327  0.69545244  0.93205166    -0.02300
C2543       C  0.59123055  0.87959738  0.99460085    -0.03400
C2544       C  0.60219730  0.89595780  0.52256314     0.06200
C2545       C  0.61967505  0.87874386  0.54678151    -0.03600
C2546       C  0.62872549  0.84418276  0.54027941    -0.03600
C2547       C  0.62151546  0.82863297  0.50918181     0.06400
C2548       C  0.60063366  0.84386966  0.48695898    -0.03800
Br2549     Br  0.58913194  0.82299718  0.94482590    -0.02300
Br2550     Br  0.56029993  0.90139590  0.96633663    -0.00600
Br2551     Br  0.65435408  0.81980279  0.57183088    -0.02300
Br2552     Br  0.63343133  0.90348324  0.58715277    -0.02300
C2553       C  0.58591767  0.94328218  0.85599209    -0.03400
C2554       C  0.57239604  0.97438056  0.86728192     0.06200
C2555       C  0.57759753  0.50513370  0.85253656    -0.03600
C2556       C  0.59710667  0.50729520  0.82521811    -0.03600
C2557       C  0.61163489  0.47655188  0.81425185     0.06400
C2558       C  0.60532145  0.94514307  0.82870510    -0.03800
Br2559     Br  0.62592124  0.90310338  0.81360755    -0.02300
Br2560     Br  0.57998776  0.89924518  0.87930490    -0.02400
Br2561     Br  0.60807023  0.55317431  0.80646328    -0.02300
Br2562     Br  0.55954250  0.54803912  0.86962990    -0.02300
C2563       C  0.91030220  0.03953569  0.69173191    -0.03400
C2564       C  0.88367764  0.01559622  0.69245904     0.06200
C2565       C  0.87921794  0.49609064  0.66767273    -0.03600
C2566       C  0.89582331  0.50024923  0.63863591    -0.03600
C2567       C  0.91816776  0.52967802  0.63597864     0.06400
C2568       C  0.92857011  0.54963437  0.66435107    -0.03800
Br2569     Br  0.96190736  0.58708744  0.66252019    -0.02300
Br2570     Br  0.92073922  0.07029111  0.72922872    -0.02400
Br2571     Br  0.88853448  0.46425819  0.60419198    -0.02300
Br2572     Br  0.84210006  0.95500593  0.67129911    -0.02300
C2573       C  0.99981815  0.82838934  0.54756904    -0.03400
C2574       C  0.97131977  0.84625646  0.54684396     0.06200
C2575       C  0.94900702  0.83927716  0.57128095    -0.03600
C2576       C  0.45972922  0.82603220  0.60156385    -0.03600
C2577       C  0.49227403  0.81811378  0.60548910     0.06400
C2578       C  0.01157642  0.81622584  0.57758884    -0.03800
Br2579     Br  0.05452425  0.80030883  0.58110034    -0.02300
Br2580     Br  0.02296645  0.82423838  0.50783766    -0.02400
Br2581     Br  0.42992495  0.81998831  0.63684130    -0.02300
Br2582     Br  0.40574296  0.85355694  0.56574403    -0.02300
C2583       C  0.55555768  0.67228561  0.93837407    -0.03400
C2584       C  0.53243732  0.66199267  0.96093614     0.06200
C2585       C  0.00340029  0.67955188  0.96001800    -0.03600
C2586       C  0.99204078  0.69194253  0.92993034    -0.03600
C2587       C  0.01232874  0.69099199  0.90285359     0.06400
C2588       C  0.04525227  0.68577691  0.90824230    -0.03800
Br2589     Br  0.57607364  0.69497693  0.87460671    -0.02300
Br2590     Br  0.59977051  0.66418665  0.94785660    -0.02400
Br2591     Br  0.94939573  0.70848239  0.92581435    -0.02300
Br2592     Br  0.98008852  0.68287263  0.99954146    -0.02300
loop_ 
_geom_bond_atom_site_label_1 
_geom_bond_atom_site_label_2 
_geom_bond_distance 
_geom_bond_site_symmetry_2 
_ccdc_geom_bond_type 
C1            C2   1.533       .  S
C1            C7   1.567       .  S
C1            C5   1.571       .  S
C1          C135   1.602       .  S
C2            H9   1.087       .  S
C2            C3   1.366       .  D
C3            C4   1.591       .  S
C3           C45   1.534       .  S
C4            C8   1.594       .  S
C4            C6   1.589       .  S
C4           H10   1.110       .  S
C5           H11   1.085       .  S
C5            C6   1.392       .  D
C6           C90   1.572       .  S
C7           H12   1.085       .  S
C7            C8   1.385       .  D
C8          C168   1.571       .  S
C13          C14   1.542       .  S
C13          C19   1.533       .  S
C13          C17   1.553       .  S
C13          C55   1.571       .  S
C14          H21   1.086       .  S
C14          C15   1.370       .  D
C15          C16   1.626       .  S
C15         C100   1.584       .  S
C16          C20   1.623       .  S
C16          C18   1.598       .  S
C16          H22   1.109       .  S
C17          H23   1.086       .  S
C17          C18   1.385       .  D
C18         C204   1.570       .  S
C19          H24   1.086       .  S
C19          C20   1.372       .  D
C20         C145   1.568       .  S
N25          N26   1.319       .  A
N25          N31   1.318       .  A
N25        Mn702   2.219       .  S
N26          C33   1.354       .  A
N27          N28   1.317       .  A
N27        N1325   1.317       .  A
N27         Mn43   2.235       .  S
N28        C1330   1.356       .  A
N29          N30   1.314       .  A
N29        N1323   1.317       .  A
N29         Mn54   2.122       .  S
N30          C34   1.339       .  A
N31          N32   1.310       .  A
N31       Mn1987   2.138   1_455  S
N32          C33   1.339       .  A
C33         C286   1.442       .  S
C34        N1324   1.355       .  A
C34         C316   1.451       .  S
N35          N41   1.309       .  A
N35         N360   1.313       .  A
N35       Mn1037   2.158   1_545  S
N36         N359   1.314       .  A
N36         C368   1.351       .  A
N37          N38   1.330       .  A
N37          N39   1.315       .  A
N37        Mn691   2.266       .  S
N38          C45   1.366       .  A
N39          N40   1.337       .  A
N39        Mn389   2.257       .  S
N40          C45   1.364       .  A
N41          N42   1.306       .  A
N41         Mn43   2.125       .  S
N42          C44   1.340       .  A
Mn43       N1975   2.124   1_545  S
Mn43        N685   2.260   1_545  S
Mn43        Cl67   2.520       .  S
C44         N360   1.350       .  A
C44         C269   1.433       .  S
N46          N47   1.329       .  A
N46          N52   1.317       .  A
N46        Mn378   2.252   1_554  S
N47          C55   1.362       .  A
N48          N49   1.310       .  A
N48         N374   1.309       .  A
N48         Mn66   2.127       .  S
N49          C56   1.340       .  A
N50          N51   1.311       .  A
N50         N372   1.309       .  A
N50        Mn702   2.165       .  S
N51         C380   1.351       .  A
N52          N53   1.337       .  A
N52        Mn714   2.275   1_545  S
N53          C55   1.369       .  A
Mn54        N673   2.222   1_545  S
Mn54        N370   2.258       .  S
Mn54        N698   2.145   1_545  S
Mn54      Cl1363   2.560   1_455  S
C56         N375   1.352       .  A
C56         C276   1.436       .  S
N57          N58   1.318       .  A
N57          N63   1.319       .  A
N57         Mn65   2.150       .  S
N58          C68   1.345       .  A
N59          N60   1.310       .  A
N59          N61   1.318       .  A
N59       Mn2010   2.131   1_545  S
N60          C69   1.339       .  A
N61          N62   1.313       .  A
N61        Mn713   2.199   1_545  S
N62          C69   1.348       .  A
N63        N1360   1.315       .  A
N63       Mn1362   2.230       .  S
N64        N1359   1.315       .  A
N64        C1364   1.351       .  A
Mn65       N1007   2.154   1_554  S
Mn65        N363   2.258   1_554  S
Mn65        N709   2.222       .  S
Mn65      Cl1039   2.568       .  S
Mn66        N700   2.273       .  S
Mn66       N2003   2.134   1_455  S
Mn66       N1359   2.230   1_455  S
Mn66      Cl2335   2.526   1_455  S
Cl67      Mn1350   2.560       .  S
Cl67      Mn1037   2.562   1_545  S
Cl67      Mn2334   2.527   1_545  S
C68        N1360   1.351       .  A
C68         C306   1.452       .  S
C69         C299   1.443       .  S
N70          N71   1.309       .  A
N70          N76   1.321       .  A
N70        Mn423   2.196       .  S
N71          C78   1.343       .  A
N72          N74   1.323       .  A
N72          N73   1.317       .  A
N72         Mn88   2.235       .  S
N73          C79   1.350       .  A
N74          N75   1.314       .  A
N74         Mn99   2.176       .  S
N75          C79   1.347       .  A
N76          N77   1.315       .  A
N76        Mn412   2.149       .  S
N77          C78   1.343       .  A
C78         C266   1.428       .  S
C79         C256   1.455       .  S
N80          N86   1.307   1_556  A
N80          N81   1.325   1_556  A
N80        Mn434   2.198       .  S
N81          C89   1.361       .  A
N82          N83   1.341       .  A
N82          N84   1.317       .  A
N82        Mn412   2.286       .  S
N83          C90   1.371       .  A
N84          N85   1.342       .  A
N84        Mn110   2.314       .  S
N85          C90   1.372       .  A
N86          N87   1.306       .  A
N86         Mn88   2.141       .  S
N87          C89   1.344       .  A
Mn88        N400   2.152       .  S
Mn88        N406   2.284   1_554  S
Mn88       Cl112   2.555       .  S
C89         C226   1.457       .  S
N91          N92   1.347       .  A
N91          N97   1.317       .  A
N91         Mn99   2.286       .  S
N92         C100   1.371       .  A
N93          N95   1.308       .  A
N93          N94   1.311       .  A
N93        Mn111   2.145       .  S
N94         C101   1.348       .  A
N95          N96   1.323       .  A
N95        Mn423   2.212       .  S
N96         C101   1.359       .  A
N97          N98   1.339       .  A
N97        Mn435   2.335   1_554  S
N98         C100   1.377       .  A
Mn99        N394   2.200       .  S
Mn99        N419   2.210       .  S
Mn99       Cl112   2.567       .  S
C101        C236   1.476       .  S
N102        N103   1.309       .  A
N102        N108   1.321       .  A
N102       Mn110   2.161       .  S
N103        C113   1.343       .  A
N104        N105   1.312       .  A
N104        N106   1.323       .  A
N104       Mn435   2.129       .  S
N105        C114   1.336       .  A
N106        N107   1.315       .  A
N106       Mn434   2.239       .  S
N107        C114   1.352       .  A
N108        N109   1.322       .  A
N108       Mn111   2.246       .  S
N109        C113   1.360       .  A
Mn110       N404   2.205       .  S
Mn110       N430   2.240       .  S
Mn110      Cl436   2.558       .  S
Mn111       N421   2.329       .  S
Mn111       N428   2.125       .  S
Mn111      Cl436   2.556       .  S
Cl112      Mn434   2.557   1_554  S
Cl112      Mn435   2.556   1_554  S
C113        C249   1.474       .  S
C114        C279   1.433   1_556  S
N115        N116   1.314       .  A
N115        N121   1.316       .  A
N115       Mn144   2.229       .  S
N116        C123   1.350       .  A
N117        N119   1.320       .  A
N117       N1414   1.316       .  A
N117       Mn133   2.204       .  S
N118       N1413   1.316       .  A
N118        C124   1.346       .  A
N119       N1416   1.314       .  A
N119       Mn144   2.154       .  S
N120       N1415   1.315       .  A
N120        C124   1.343   1_455  A
N121        N122   1.312       .  A
N121       Mn133   2.132       .  S
N122        C123   1.345       .  A
C123        C259   1.450       .  S
C124        C309   1.458       .  S
N125        N131   1.316       .  A
N125        N126   1.317       .  A
N125       Mn155   2.172       .  S
N126        C134   1.345       .  A
N127        N128   1.336       .  A
N127        N129   1.311       .  A
N127       Mn133   2.249       .  S
N128        C135   1.364       .  A
N129        N130   1.343       .  A
N129      Mn1451   2.325       .  S
N130        C135   1.379       .  A
N131        N132   1.317       .  A
N131      Mn1429   2.162   1_455  S
N132        C134   1.343       .  A
Mn133      N1427   2.162       .  S
Mn133      Cl157   2.543       .  S
C134        C219   1.460       .  S
N136        N137   1.334       .  A
N136        N142   1.313       .  A
N136      Mn1440   2.260   1_455  S
N137        C145   1.368       .  A
N138        N140   1.308       .  A
N138        N139   1.328       .  A
N138      Mn1452   2.194       .  S
N139        C146   1.358       .  A
N140        N141   1.309       .  A
N140       Mn144   2.152       .  S
N141        C146   1.338       .  A
N142        N143   1.347       .  A
N142       Mn156   2.338       .  S
N143        C145   1.378       .  A
Mn144      N1432   2.260       .  S
Mn144      Cl157   2.533       .  S
C146        C206   1.500       .  S
N147        N153   1.322       .  A
N147       N1444   1.309   1_455  A
N147       Mn155   2.127       .  S
N148       N1443   1.309       .  A
N148        C158   1.335       .  A
N149        N150   1.307       .  A
N149        N151   1.319       .  A
N149       Mn156   2.119       .  S
N150        C159   1.335       .  A
N151        N152   1.328       .  A
N151       Mn155   2.284       .  S
N152        C159   1.365       .  A
N153       N1450   1.319       .  A
N153       Mn156   2.249       .  S
N154       N1449   1.319       .  A
N154        C158   1.355       .  A
Mn155      N1425   2.324   1_455  S
Mn155     Cl1453   2.531       .  S
Mn156      N1434   2.193   1_455  S
Mn156     Cl1453   2.528       .  S
Cl157     Mn1451   2.531       .  S
Cl157     Mn1452   2.528       .  S
C158        C319   1.444       .  S
C159        C246   1.475       .  S
N160        N161   1.342       .  A
N160        N166   1.320       .  A
N160       Mn189   2.291       .  S
N161        C168   1.370       .  A
N162        N164   1.311   1_545  A
N162        N163   1.311       .  A
N162       Mn178   2.151       .  S
N163        C169   1.348       .  A
N164        N165   1.323       .  A
N164       Mn837   2.209       .  S
N165        C169   1.357   1_565  A
N166        N167   1.341       .  A
N166       Mn826   2.311       .  S
N167        C168   1.370       .  A
C169        C239   1.472       .  S
N170        N176   1.327       .  A
N170        N171   1.317       .  A
N170       Mn200   2.203       .  S
N171        C179   1.350       .  A
N172        N173   1.317       .  A
N172        N174   1.323       .  A
N172       Mn826   2.149       .  S
N173        C180   1.342       .  A
N174        N175   1.310       .  A
N174       Mn848   2.219       .  S
N175        C180   1.346       .  A
N176        N177   1.317       .  A
N176       Mn178   2.234       .  S
N177        C179   1.350       .  A
Mn178       N814   2.310   1_545  S
Mn178       N820   2.143       .  S
Mn178      Cl202   2.529       .  S
C179        C209   1.489       .  S
C180        C296   1.435       .  S
N181        N182   1.306       .  A
N181        N187   1.319       .  A
N181       Mn837   2.162       .  S
N182        C190   1.341       .  A
N183        N185   1.320       .  A
N183        N184   1.309       .  A
N183       Mn201   2.206       .  S
N184        C191   1.330       .  A
N185        N186   1.326       .  A
N185       Mn189   2.223       .  S
N186        C191   1.361       .  A
N187        N188   1.317       .  A
N187       Mn849   2.169       .  S
N188        C190   1.345       .  A
Mn189       N812   2.207       .  S
Mn189       N829   2.169       .  S
Mn189      Cl850   2.586       .  S
C190        C289   1.434       .  S
C191        C216   1.477       .  S
N192        N193   1.328       .  A
N192        N198   1.304       .  A
N192       Mn848   2.203       .  S
N193        C203   1.362       .  A
N194        N195   1.334       .  A
N194        N196   1.319       .  A
N194       Mn849   2.257   1_545  S
N195        C204   1.364       .  A
N196        N197   1.347       .  A
N196       Mn200   2.322       .  S
N197        C204   1.375       .  A
N198        N199   1.304       .  A
N198       Mn201   2.116       .  S
N199        C203   1.339       .  A
Mn200       N822   2.209       .  S
Mn200       N840   2.209       .  S
Mn200      Cl202   2.577       .  S
Mn201       N835   2.186       .  S
Mn201       N842   2.265       .  S
Mn201      Cl850   2.517       .  S
Cl202      Mn837   2.588   1_545  S
Cl202      Mn849   2.513   1_545  S
C203        C229   1.462       .  S
C205        C206   1.428       .  A
C205        C210   1.401       .  A
C205       Br212   1.942       .  S
C206        C207   1.424       .  A
C207        C208   1.413       .  A
C207       Br214   1.930       .  S
C208        C209   1.407       .  A
C208       Br213   1.927       .  S
C209        C210   1.406       .  A
C210       Br211   1.937       .  S
C215        C216   1.400       .  A
C215        C220   1.403       .  A
C215       Br222   1.927       .  S
C216        C217   1.434       .  A
C217        C218   1.398       .  A
C217       Br224   1.942       .  S
C218        C219   1.396       .  A
C218       Br223   1.938       .  S
C219        C220   1.410       .  A
C220       Br221   1.922       .  S
C225        C226   1.404       .  A
C225        C230   1.389       .  A
C225       Br232   1.937       .  S
C226        C227   1.407       .  A
C227        C228   1.411       .  A
C227       Br234   1.921       .  S
C228        C229   1.409       .  A
C228       Br233   1.925       .  S
C229        C230   1.410       .  A
C230       Br231   1.935       .  S
C235        C236   1.409       .  A
C235        C240   1.404       .  A
C235       Br242   1.929       .  S
C236        C237   1.415       .  A
C237        C238   1.405       .  A
C237       Br244   1.934       .  S
C238        C239   1.407       .  A
C238       Br243   1.932       .  S
C239        C240   1.412       .  A
C240       Br241   1.934       .  S
C245        C246   1.408       .  A
C245        C250   1.399       .  A
C245       Br252   1.925       .  S
C246        C247   1.429       .  A
C247        C248   1.404       .  A
C247       Br254   1.935       .  S
C248        C249   1.398       .  A
C248       Br253   1.932       .  S
C249        C250   1.409       .  A
C250       Br251   1.932       .  S
C255        C256   1.404       .  A
C255        C260   1.404       .  A
C255       Br262   1.926       .  S
C256        C257   1.415       .  A
C257        C258   1.387       .  A
C257       Br264   1.936       .  S
C258        C259   1.412       .  A
C258       Br263   1.951       .  S
C259        C260   1.409       .  A
C260       Br261   1.930       .  S
C265        C266   1.398       .  A
C265        C270   1.387       .  A
C265       Br272   1.919       .  S
C266        C267   1.402       .  A
C267        C268   1.392       .  A
C267       Br274   1.932       .  S
C268        C269   1.405       .  A
C268       Br273   1.932       .  S
C269        C270   1.407       .  A
C270       Br595   1.937       .  S
Br271       C594   1.936       .  S
C275        C600   1.408       .  A
C275        C604   1.388       .  A
C275       Br282   1.934       .  S
C276        C277   1.404       .  A
C276        C599   1.408   1_554  A
C277        C278   1.394       .  A
C277       Br284   1.931       .  S
C278        C279   1.404       .  A
C278       Br283   1.930       .  S
C279        C280   1.395   1_554  A
C280        C599   1.389       .  A
C280       Br605   1.928       .  S
Br281       C604   1.929       .  S
C285        C286   1.398       .  A
C285        C290   1.395       .  A
C285       Br292   1.927       .  S
C286        C935   1.412       .  A
C287        C288   1.393       .  A
C287        C934   1.411   1_545  A
C287       Br294   1.936       .  S
C288        C289   1.400   1_545  A
C288       Br293   1.933       .  S
C289        C938   1.408       .  A
C290        C937   1.408       .  A
C290       Br291   1.926       .  S
C295        C296   1.396       .  A
C295        C948   1.397       .  A
C295       Br302   1.922       .  S
C296        C945   1.397       .  A
C297        C298   1.389       .  A
C297        C944   1.397   1_565  A
C297       Br952   1.931       .  S
C298        C299   1.414   1_565  A
C298       Br303   1.937       .  S
C299        C300   1.409       .  A
C300        C943   1.393       .  A
C300       Br301   1.932       .  S
Br304       C945   1.932       .  S
C305        C306   1.400       .  A
C305        C310   1.399       .  A
C305       Br312   1.916       .  S
C306        C307   1.395       .  A
C307       C1604   1.397       .  A
C307      Br1610   1.927       .  S
C308        C309   1.420       .  A
C308       C1603   1.398       .  A
C308       Br313   1.935       .  S
C309       C1606   1.408   1_655  A
C310       C1605   1.408       .  A
C310       Br311   1.929       .  S
Br314      C1603   1.927       .  S
C315        C316   1.397       .  A
C315       C1616   1.396       .  A
C315       Br322   1.926       .  S
C316       C1613   1.396   1_455  A
C317        C318   1.397       .  A
C317       C1612   1.396       .  A
C317       Br324   1.909       .  S
C318        C319   1.403       .  A
C318       Br323   1.924       .  S
C319        C320   1.413       .  A
C320       C1611   1.396       .  A
C320      Br1617   1.926       .  S
Br321      C1616   1.926       .  S
C325        C326   1.533       .  S
C325        C331   1.568       .  S
C325        C329   1.572       .  S
C325        C459   1.604       .  S
C326        H333   1.087       .  S
C326        C327   1.367       .  D
C327        C328   1.588       .  S
C327        C369   1.531       .  S
C328        C332   1.592       .  S
C328        C330   1.588       .  S
C328        H334   1.110       .  S
C329        H335   1.085       .  S
C329        C330   1.392       .  D
C330        C414   1.571       .  S
C331        H336   1.085       .  S
C331        C332   1.386       .  D
C332        C492   1.569       .  S
C337        C338   1.542       .  S
C337        C343   1.533       .  S
C337        C341   1.556       .  S
C337        C379   1.574       .  S
C338        H345   1.086       .  S
C338        C339   1.371       .  D
C339        C340   1.625       .  S
C339        C424   1.582       .  S
C340        C344   1.623       .  S
C340        C342   1.598       .  S
C340        H346   1.109       .  S
C341        H347   1.086       .  S
C341        C342   1.387       .  D
C342        C528   1.573       .  S
C343        H348   1.087       .  S
C343        C344   1.371       .  D
C344        C469   1.568       .  S
N349        N350   1.318       .  A
N349        N355   1.317       .  A
N349      Mn1026   2.219       .  S
N350        C357   1.354       .  A
N351       N1649   1.317       .  A
N351        N352   1.317       .  A
N351       Mn367   2.235       .  S
N352       C1654   1.356       .  A
N353       N1647   1.317       .  A
N353        N354   1.315       .  A
N353       Mn378   2.121       .  S
N354        C358   1.339       .  A
N355        N356   1.310       .  A
N355      Mn2311   2.136   1_455  S
N356        C357   1.339       .  A
C357        C610   1.442       .  S
C358       N1648   1.356       .  A
C358        C640   1.452       .  S
N359        N365   1.309       .  A
N359       Mn713   2.162   1_546  S
N361        N362   1.330       .  A
N361        N363   1.315       .  A
N361      Mn1015   2.262       .  S
N362        C369   1.365       .  A
N363        N364   1.336       .  A
N364        C369   1.364       .  A
N365        N366   1.307       .  A
N365       Mn367   2.126       .  S
N366        C368   1.340       .  A
Mn367      N2299   2.124   1_545  S
Mn367      N1009   2.260   1_545  S
Mn367      Cl391   2.519   1_556  S
C368        C593   1.436       .  S
N370        N371   1.330       .  A
N370        N376   1.317       .  A
N371        C379   1.363       .  A
N372        N373   1.310       .  A
N372       Mn390   2.126       .  S
N373        C380   1.340       .  A
N374        N375   1.312       .  A
N374      Mn1026   2.167   1_554  S
N376        N377   1.337       .  A
N376      Mn1038   2.275   1_545  S
N377        C379   1.369       .  A
Mn378       N997   2.225   1_545  S
Mn378      N1022   2.147   1_546  S
Mn378     Cl1687   2.561   1_456  S
C380        C600   1.434       .  S
N381        N382   1.318       .  A
N381        N387   1.320       .  A
N381       Mn389   2.145       .  S
N382        C392   1.343       .  A
N383        N384   1.310       .  A
N383        N385   1.318       .  A
N383      Mn2334   2.135   1_545  S
N384        C393   1.340       .  A
N385        N386   1.314       .  A
N385      Mn1037   2.202   1_545  S
N386        C393   1.348       .  A
N387       N1684   1.316       .  A
N387      Mn1686   2.238       .  S
N388       N1683   1.316       .  A
N388       C1688   1.353       .  A
Mn389       N683   2.151       .  S
Mn389      N1033   2.220       .  S
Mn389      Cl715   2.570       .  S
Mn390      N1024   2.279       .  S
Mn390      N2327   2.134   1_455  S
Mn390      N1683   2.237   1_455  S
Mn390     Cl2011   2.525   1_455  S
Cl391     Mn1674   2.560   1_554  S
Cl391      Mn713   2.562   1_545  S
Cl391     Mn2010   2.527   1_545  S
C392       N1684   1.353       .  A
C392        C630   1.452       .  S
C393        C623   1.445       .  S
N394        N395   1.309       .  A
N394        N400   1.322       .  A
N395        C402   1.344       .  A
N396        N398   1.323       .  A
N396        N397   1.317       .  A
N396       Mn412   2.232       .  S
N397        C403   1.349       .  A
N398        N399   1.313       .  A
N398       Mn423   2.176       .  S
N399        C403   1.347       .  A
N400        N401   1.316       .  A
N401        C402   1.343       .  A
C402        C590   1.431       .  S
C403        C580   1.453       .  S
N404        N410   1.307       .  A
N404        N405   1.326       .  A
N405        C413   1.363       .  A
N406        N407   1.341       .  A
N406        N408   1.316       .  A
N407        C414   1.370       .  A
N408        N409   1.342       .  A
N408       Mn434   2.314       .  S
N409        C414   1.372       .  A
N410        N411   1.306       .  A
N410       Mn412   2.137       .  S
N411        C413   1.344       .  A
Mn412      Cl436   2.554       .  S
C413        C550   1.459       .  S
N415        N416   1.346       .  A
N415        N421   1.316       .  A
N415       Mn423   2.285       .  S
N416        C424   1.371       .  A
N417        N419   1.309   1_556  A
N417        N418   1.311       .  A
N417       Mn435   2.147       .  S
N418        C425   1.347       .  A
N419        N420   1.324       .  A
N420        C425   1.359   1_554  A
N421        N422   1.339       .  A
N422        C424   1.377       .  A
Mn423      Cl436   2.567       .  S
C425        C560   1.475       .  S
N426        N427   1.309       .  A
N426        N432   1.321       .  A
N426       Mn434   2.154       .  S
N427        C437   1.341       .  A
N428        N429   1.311       .  A
N428        N430   1.324       .  A
N429        C438   1.334       .  A
N430        N431   1.315       .  A
N431        C438   1.352       .  A
N432        N433   1.323       .  A
N432       Mn435   2.256       .  S
N433        C437   1.362       .  A
C437        C573   1.476       .  S
C438        C603   1.430       .  S
N439        N440   1.313       .  A
N439        N445   1.315       .  A
N439       Mn468   2.224       .  S
N440        C447   1.349       .  A
N441        N443   1.320       .  A
N441       N1738   1.315       .  A
N441       Mn457   2.206       .  S
N442       N1737   1.315       .  A
N442        C448   1.346       .  A
N443       N1740   1.316       .  A
N443       Mn468   2.157       .  S
N444       N1739   1.316       .  A
N444        C448   1.343   1_455  A
N445        N446   1.311       .  A
N445       Mn457   2.131       .  S
N446        C447   1.344       .  A
C447        C583   1.448       .  S
C448        C633   1.458       .  S
N449        N455   1.315       .  A
N449        N450   1.316       .  A
N449       Mn479   2.171       .  S
N450        C458   1.345       .  A
N451        N452   1.337       .  A
N451        N453   1.312       .  A
N451       Mn457   2.252       .  S
N452        C459   1.364       .  A
N453        N454   1.344       .  A
N453      Mn1775   2.329       .  S
N454        C459   1.379       .  A
N455        N456   1.318       .  A
N455      Mn1753   2.163   1_455  S
N456        C458   1.344       .  A
Mn457      N1751   2.163       .  S
Mn457      Cl481   2.538       .  S
C458        C543   1.456       .  S
N460        N461   1.334       .  A
N460        N466   1.313       .  A
N460      Mn1764   2.258   1_455  S
N461        C469   1.369       .  A
N462        N464   1.308       .  A
N462        N463   1.329       .  A
N462      Mn1776   2.199       .  S
N463        C470   1.359       .  A
N464        N465   1.310       .  A
N464       Mn468   2.155       .  S
N465        C470   1.338       .  A
N466        N467   1.347       .  A
N466       Mn480   2.338       .  S
N467        C469   1.378       .  A
Mn468      N1756   2.258       .  S
Mn468      Cl481   2.540       .  S
C470        C530   1.504       .  S
N471       N1768   1.310   1_455  A
N471        N477   1.322       .  A
N471       Mn479   2.131       .  S
N472       N1767   1.310       .  A
N472        C482   1.336       .  A
N473        N474   1.307       .  A
N473        N475   1.319       .  A
N473       Mn480   2.123       .  S
N474        C483   1.334       .  A
N475        N476   1.329       .  A
N475       Mn479   2.287       .  S
N476        C483   1.366       .  A
N477       N1774   1.319       .  A
N477       Mn480   2.245       .  S
N478       N1773   1.319       .  A
N478        C482   1.355       .  A
Mn479      N1749   2.330   1_455  S
Mn479     Cl1777   2.536       .  S
Mn480      N1758   2.200   1_455  S
Mn480     Cl1777   2.521       .  S
Cl481     Mn1775   2.536       .  S
Cl481     Mn1776   2.521       .  S
C482        C643   1.446       .  S
C483        C570   1.477       .  S
N484        N485   1.341       .  A
N484        N490   1.320       .  A
N484       Mn513   2.288       .  S
N485        C492   1.369       .  A
N486        N488   1.311   1_545  A
N486        N487   1.312       .  A
N486       Mn502   2.157       .  S
N487        C493   1.349       .  A
N488        N489   1.323       .  A
N488      Mn1161   2.207       .  S
N489        C493   1.357   1_565  A
N490        N491   1.341       .  A
N490      Mn1150   2.311       .  S
N491        C492   1.370       .  A
C493        C563   1.473       .  S
N494        N500   1.327       .  A
N494        N495   1.318       .  A
N494       Mn524   2.210       .  S
N495        C503   1.352       .  A
N496        N497   1.316       .  A
N496        N498   1.323       .  A
N496      Mn1150   2.148       .  S
N497        C504   1.342       .  A
N498        N499   1.310       .  A
N498      Mn1172   2.216       .  S
N499        C504   1.346       .  A
N500        N501   1.317       .  A
N500       Mn502   2.231       .  S
N501        C503   1.350       .  A
Mn502      N1138   2.308   1_545  S
Mn502      N1144   2.149       .  S
Mn502      Cl526   2.530       .  S
C503        C533   1.490       .  S
C504        C620   1.435       .  S
N505        N506   1.306       .  A
N505        N511   1.319       .  A
N505      Mn1161   2.164       .  S
N506        C514   1.341       .  A
N507        N509   1.320       .  A
N507        N508   1.309       .  A
N507       Mn525   2.201       .  S
N508        C515   1.330       .  A
N509        N510   1.325       .  A
N509       Mn513   2.223       .  S
N510        C515   1.361       .  A
N511        N512   1.317       .  A
N511      Mn1173   2.171       .  S
N512        C514   1.345       .  A
Mn513      N1136   2.208       .  S
Mn513      N1153   2.168       .  S
Mn513     Cl1174   2.586       .  S
C514        C613   1.436       .  S
C515        C540   1.476       .  S
N516        N517   1.328       .  A
N516        N522   1.304       .  A
N516      Mn1172   2.204       .  S
N517        C527   1.362       .  A
N518        N519   1.335       .  A
N518        N520   1.319       .  A
N518      Mn1173   2.260   1_545  S
N519        C528   1.364       .  A
N520        N521   1.348       .  A
N520       Mn524   2.328       .  S
N521        C528   1.376       .  A
N522        N523   1.305       .  A
N522       Mn525   2.123       .  S
N523        C527   1.341       .  A
Mn524      N1146   2.209       .  S
Mn524      N1164   2.211       .  S
Mn524      Cl526   2.579       .  S
Mn525      N1159   2.188       .  S
Mn525      N1166   2.255       .  S
Mn525     Cl1174   2.514       .  S
Cl526     Mn1161   2.590   1_545  S
Cl526     Mn1173   2.512   1_545  S
C527        C553   1.466       .  S
C529        C530   1.429       .  A
C529        C534   1.401       .  A
C529       Br536   1.941       .  S
C530        C531   1.425       .  A
C531        C532   1.415       .  A
C531       Br538   1.930       .  S
C532        C533   1.408       .  A
C532       Br537   1.927       .  S
C533        C534   1.404       .  A
C534       Br535   1.937       .  S
C539        C540   1.400       .  A
C539        C544   1.403       .  A
C539       Br546   1.927       .  S
C540        C541   1.433       .  A
C541        C542   1.397       .  A
C541       Br548   1.940       .  S
C542        C543   1.395       .  A
C542       Br547   1.938       .  S
C543        C544   1.410       .  A
C544       Br545   1.924       .  S
C549        C550   1.405       .  A
C549        C554   1.390       .  A
C549       Br556   1.938       .  S
C550        C551   1.409       .  A
C551        C552   1.413       .  A
C551       Br558   1.922       .  S
C552        C553   1.409       .  A
C552       Br557   1.925       .  S
C553        C554   1.410       .  A
C554       Br555   1.934       .  S
C559        C560   1.409       .  A
C559        C564   1.404       .  A
C559       Br566   1.929       .  S
C560        C561   1.415       .  A
C561        C562   1.405       .  A
C561       Br568   1.934       .  S
C562        C563   1.408       .  A
C562       Br567   1.932       .  S
C563        C564   1.412       .  A
C564       Br565   1.933       .  S
C569        C570   1.408       .  A
C569        C574   1.400       .  A
C569       Br576   1.925       .  S
C570        C571   1.430       .  A
C571        C572   1.404       .  A
C571       Br578   1.935       .  S
C572        C573   1.397       .  A
C572       Br577   1.932       .  S
C573        C574   1.411       .  A
C574       Br575   1.933       .  S
C579        C580   1.403       .  A
C579        C584   1.403       .  A
C579       Br586   1.926       .  S
C580        C581   1.415       .  A
C581        C582   1.387       .  A
C581       Br588   1.938       .  S
C582        C583   1.413       .  A
C582       Br587   1.951       .  S
C583        C584   1.408       .  A
C584       Br585   1.930       .  S
C589        C590   1.398       .  A
C589        C594   1.389       .  A
C589       Br596   1.920       .  S
C590        C591   1.402   1_554  A
C591        C592   1.393       .  A
C591       Br598   1.931       .  S
C592        C593   1.407       .  A
C592       Br597   1.932       .  S
C593        C594   1.407   1_556  A
C599       Br606   1.933       .  S
C600        C601   1.404       .  A
C601        C602   1.394       .  A
C601       Br608   1.931       .  S
C602        C603   1.403       .  A
C602       Br607   1.929       .  S
C603        C604   1.394       .  A
C609        C610   1.398       .  A
C609        C614   1.395       .  A
C609       Br616   1.926       .  S
C610       C1259   1.412       .  A
C611       C1258   1.412   1_545  A
C611        C612   1.394       .  A
C611       Br618   1.936       .  S
C612        C613   1.400   1_545  A
C612       Br617   1.932       .  S
C613       C1262   1.408       .  A
C614       C1261   1.409       .  A
C614       Br615   1.927       .  S
C619        C620   1.394       .  A
C619       C1272   1.396       .  A
C619       Br626   1.921       .  S
C620       C1269   1.397       .  A
C621       C1268   1.398   1_565  A
C621        C622   1.390       .  A
C621      Br1276   1.931       .  S
C622        C623   1.414   1_565  A
C622       Br627   1.937       .  S
C623        C624   1.409       .  A
C624       C1267   1.394       .  A
C624       Br625   1.931       .  S
Br628      C1269   1.932       .  S
C629        C630   1.399       .  A
C629        C634   1.399       .  A
C629       Br636   1.917       .  S
C630        C631   1.395       .  A
C631       C1928   1.397       .  A
C631      Br1934   1.928       .  S
C632       C1927   1.397       .  A
C632        C633   1.420       .  A
C632       Br637   1.935       .  S
C633       C1930   1.407       .  A
C634       C1929   1.407       .  A
C634       Br635   1.928       .  S
Br638      C1927   1.928       .  S
C639        C640   1.398       .  A
C639       C1940   1.396       .  A
C639       Br646   1.926       .  S
C640       C1937   1.396       .  A
C641       C1936   1.396       .  A
C641        C642   1.397       .  A
C641       Br648   1.911       .  S
C642        C643   1.404       .  A
C642       Br647   1.923       .  S
C643        C644   1.413       .  A
C644       C1935   1.397       .  A
C644      Br1941   1.927       .  S
Br645      C1940   1.927       .  S
C649        C650   1.532       .  S
C649        C655   1.566       .  S
C649        C653   1.571       .  S
C649        C783   1.598       .  S
C650        H657   1.087       .  S
C650        C651   1.365       .  D
C651        C652   1.586       .  S
C651        C693   1.528       .  S
C652        C656   1.596       .  S
C652        C654   1.587       .  S
C652        H658   1.110       .  S
C653        H659   1.085       .  S
C653        C654   1.391       .  D
C654        C738   1.568       .  S
C655        H660   1.085       .  S
C655        C656   1.384       .  D
C656        C816   1.571       .  S
C661        C662   1.543       .  S
C661        C667   1.532       .  S
C661        C665   1.555       .  S
C661        C703   1.573       .  S
C662        H669   1.086       .  S
C662        C663   1.371       .  D
C663        C664   1.628       .  S
C663        C748   1.586       .  S
C664        C668   1.624       .  S
C664        C666   1.601       .  S
C664        H670   1.109       .  S
C665        H671   1.086       .  S
C665        C666   1.386       .  D
C666        C852   1.575       .  S
C667        H672   1.087       .  S
C667        C668   1.370       .  D
C668        C793   1.569       .  S
N673        N674   1.317       .  A
N673        N679   1.318       .  A
N674        C681   1.353       .  A
N675       N1973   1.319       .  A
N675        N676   1.317       .  A
N675       Mn691   2.238       .  S
N676       C1978   1.354       .  A
N677       N1971   1.319       .  A
N677        N678   1.318       .  A
N677       Mn702   2.142       .  S
N678        C682   1.342       .  A
N679        N680   1.309       .  A
N679      Mn1339   2.125   1_465  S
N680        C681   1.337       .  A
C681        C934   1.435       .  S
C682       N1972   1.354       .  A
C682        C964   1.457       .  S
N683        N689   1.308       .  A
N683       N1008   1.311       .  A
N684       N1007   1.311       .  A
N684       C1016   1.350       .  A
N685        N686   1.330       .  A
N685        N687   1.314       .  A
N686        C693   1.364       .  A
N687        N688   1.335       .  A
N687      Mn1037   2.247       .  S
N688        C693   1.363       .  A
N689        N690   1.310       .  A
N689       Mn691   2.139       .  S
N690        C692   1.343       .  A
Mn691      N1327   2.138       .  S
Mn691      Cl715   2.517       .  S
C692       N1008   1.349       .  A
C692        C917   1.431       .  S
N694        N695   1.330       .  A
N694        N700   1.315       .  A
N694      Mn1026   2.251   1_554  S
N695        C703   1.362       .  A
N696       N1022   1.307       .  A
N696        N697   1.307       .  A
N696       Mn714   2.122       .  S
N697        C704   1.341       .  A
N698       N1020   1.307       .  A
N698        N699   1.312       .  A
N699       C1028   1.351       .  A
N700        N701   1.337       .  A
N701        C703   1.369       .  A
Mn702      N1018   2.245       .  S
Mn702     Cl2011   2.566   1_455  S
C704       N1023   1.351       .  A
C704        C924   1.426       .  S
N705        N706   1.318       .  A
N705        N711   1.321       .  A
N705       Mn713   2.161       .  S
N706        C716   1.346       .  A
N707        N708   1.309       .  A
N707        N709   1.320       .  A
N707      Mn1362   2.133       .  S
N708        C717   1.338       .  A
N709        N710   1.316       .  A
N710        C717   1.352       .  A
N711       N2008   1.316       .  A
N711      Mn2010   2.236       .  S
N712       N2007   1.316       .  A
N712       C2012   1.353       .  A
Mn713      N1011   2.250   1_554  S
Mn714      N1355   2.130   1_465  S
Mn714      N2007   2.236   1_455  S
Mn714     Cl1687   2.527   1_465  S
Cl715     Mn1998   2.567       .  S
Cl715     Mn1686   2.524       .  S
C716       N2008   1.353       .  A
C716        C954   1.457       .  S
C717        C947   1.449       .  S
N718        N719   1.312       .  A
N718        N724   1.322       .  A
N718      Mn1071   2.219       .  S
N719        C726   1.348       .  A
N720        N722   1.323       .  A
N720        N721   1.321       .  A
N720       Mn736   2.245       .  S
N721        C727   1.355       .  A
N722        N723   1.314       .  A
N722       Mn747   2.180       .  S
N723        C727   1.347       .  A
N724        N725   1.314       .  A
N724      Mn1060   2.134       .  S
N725        C726   1.338       .  A
C726        C914   1.429       .  S
C727        C904   1.461       .  S
N728        N734   1.307   1_556  A
N728        N729   1.325   1_556  A
N728      Mn1082   2.203       .  S
N729        C737   1.360       .  A
N730        N731   1.342       .  A
N730        N732   1.315       .  A
N730      Mn1060   2.298       .  S
N731        C738   1.373       .  A
N732        N733   1.340       .  A
N732       Mn758   2.289       .  S
N733        C738   1.369       .  A
N734        N735   1.305       .  A
N734       Mn736   2.134       .  S
N735        C737   1.344       .  A
Mn736      N1048   2.136       .  S
Mn736      N1054   2.299   1_554  S
Mn736      Cl760   2.564       .  S
C737        C874   1.456       .  S
N739        N740   1.346       .  A
N739        N745   1.318       .  A
N739       Mn747   2.285       .  S
N740        C748   1.371       .  A
N741        N743   1.309       .  A
N741        N742   1.310       .  A
N741       Mn759   2.142       .  S
N742        C749   1.347       .  A
N743        N744   1.324       .  A
N743      Mn1071   2.214       .  S
N744        C749   1.360       .  A
N745        N746   1.341       .  A
N745      Mn1083   2.344   1_554  S
N746        C748   1.379       .  A
Mn747      N1042   2.215       .  S
Mn747      N1067   2.213       .  S
Mn747      Cl760   2.559       .  S
C749        C884   1.477       .  S
N750        N751   1.309       .  A
N750        N756   1.321       .  A
N750       Mn758   2.152       .  S
N751        C761   1.341       .  A
N752        N753   1.312       .  A
N752        N754   1.322       .  A
N752      Mn1083   2.131       .  S
N753        C762   1.338       .  A
N754        N755   1.309       .  A
N754      Mn1082   2.210       .  S
N755        C762   1.346       .  A
N756        N757   1.323       .  A
N756       Mn759   2.257       .  S
N757        C761   1.362       .  A
Mn758      N1052   2.201       .  S
Mn758      N1078   2.209       .  S
Mn758     Cl1084   2.551       .  S
Mn759      N1069   2.331       .  S
Mn759      N1076   2.128       .  S
Mn759     Cl1084   2.560       .  S
Cl760     Mn1082   2.552   1_554  S
Cl760     Mn1083   2.561   1_554  S
C761        C897   1.476       .  S
C762        C927   1.422   1_556  S
N763        N764   1.312       .  A
N763        N769   1.315       .  A
N763       Mn792   2.240       .  S
N764        C771   1.349       .  A
N765        N767   1.319       .  A
N765       N2062   1.318       .  A
N765       Mn781   2.219       .  S
N766       N2061   1.318       .  A
N766        C772   1.352   1_655  A
N767       N2064   1.313       .  A
N767       Mn792   2.144       .  S
N768       N2063   1.313       .  A
N768        C772   1.340       .  A
N769        N770   1.317       .  A
N769       Mn781   2.139       .  S
N770        C771   1.349       .  A
C771        C907   1.466       .  S
C772        C957   1.452   1_455  S
N773        N779   1.317       .  A
N773        N774   1.317       .  A
N773       Mn803   2.175       .  S
N774        C782   1.345       .  A
N775        N776   1.336       .  A
N775        N777   1.314       .  A
N775       Mn781   2.258       .  S
N776        C783   1.365       .  A
N777        N778   1.342       .  A
N777      Mn2099   2.321       .  S
N778        C783   1.377       .  A
N779        N780   1.317       .  A
N779      Mn2077   2.168   1_455  S
N780        C782   1.345       .  A
Mn781      N2075   2.169       .  S
Mn781      Cl805   2.554       .  S
C782        C867   1.458       .  S
N784        N785   1.334       .  A
N784        N790   1.312       .  A
N784      Mn2088   2.257   1_455  S
N785        C793   1.369       .  A
N786        N788   1.309       .  A
N786        N787   1.328       .  A
N786      Mn2100   2.195       .  S
N787        C794   1.358       .  A
N788        N789   1.308       .  A
N788       Mn792   2.151       .  S
N789        C794   1.338       .  A
N790        N791   1.347       .  A
N790       Mn804   2.337       .  S
N791        C793   1.378       .  A
Mn792      N2080   2.257       .  S
Mn792      Cl805   2.532       .  S
C794        C854   1.493       .  S
N795       N2092   1.313   1_455  A
N795        N801   1.323       .  A
N795       Mn803   2.145       .  S
N796       N2091   1.313       .  A
N796        C806   1.338       .  A
N797        N798   1.306       .  A
N797        N799   1.319       .  A
N797       Mn804   2.119       .  S
N798        C807   1.334       .  A
N799        N800   1.328       .  A
N799       Mn803   2.280       .  S
N800        C807   1.366       .  A
N801       N2098   1.320       .  A
N801       Mn804   2.252       .  S
N802       N2097   1.320       .  A
N802        C806   1.355       .  A
Mn803      N2073   2.321   1_455  S
Mn803     Cl2101   2.533       .  S
Mn804      N2082   2.195   1_455  S
Mn804     Cl2101   2.531       .  S
Cl805     Mn2099   2.533       .  S
Cl805     Mn2100   2.531       .  S
C806        C967   1.455       .  S
C807        C894   1.474       .  S
N808        N809   1.342       .  A
N808        N814   1.319       .  A
N808       Mn837   2.291       .  S
N809        C816   1.371       .  A
N810        N812   1.313       .  A
N810        N811   1.314       .  A
N810       Mn826   2.166       .  S
N811        C817   1.350       .  A
N812        N813   1.321       .  A
N813        C817   1.355       .  A
N814        N815   1.341       .  A
N815        C816   1.370       .  A
C817        C887   1.471       .  S
N818        N824   1.328       .  A
N818        N819   1.316       .  A
N818       Mn848   2.199       .  S
N819        C827   1.348       .  A
N820        N821   1.314       .  A
N820        N822   1.323       .  A
N821        C828   1.340       .  A
N822        N823   1.310       .  A
N823        C828   1.345       .  A
N824        N825   1.320       .  A
N824       Mn826   2.248       .  S
N825        C827   1.353       .  A
Mn826      Cl850   2.539       .  S
C827        C857   1.486       .  S
C828        C944   1.428       .  S
N829        N830   1.307       .  A
N829        N835   1.320       .  A
N830        C838   1.340       .  A
N831        N833   1.322       .  A
N831        N832   1.310       .  A
N831       Mn849   2.212       .  S
N832        C839   1.331       .  A
N833        N834   1.326       .  A
N833       Mn837   2.227       .  S
N834        C839   1.361       .  A
N835        N836   1.320       .  A
N836        C838   1.349       .  A
C838        C937   1.442       .  S
C839        C864   1.478       .  S
N840        N841   1.328       .  A
N840        N846   1.304       .  A
N841        C851   1.363   1_545  A
N842        N843   1.335       .  A
N842        N844   1.319       .  A
N843        C852   1.365       .  A
N844        N845   1.348       .  A
N844       Mn848   2.328       .  S
N845        C852   1.376       .  A
N846        N847   1.303   1_545  A
N846       Mn849   2.116   1_545  S
N847        C851   1.340       .  A
Mn848      Cl850   2.574       .  S
C851        C877   1.464       .  S
C853        C854   1.423       .  A
C853        C858   1.398       .  A
C853       Br860   1.938       .  S
C854        C855   1.424       .  A
C855        C856   1.413       .  A
C855       Br862   1.928       .  S
C856        C857   1.404       .  A
C856       Br861   1.923       .  S
C857        C858   1.406       .  A
C858       Br859   1.935       .  S
C863        C864   1.401       .  A
C863        C868   1.405       .  A
C863       Br870   1.927       .  S
C864        C865   1.432       .  A
C865        C866   1.397       .  A
C865       Br872   1.940       .  S
C866        C867   1.395       .  A
C866       Br871   1.937       .  S
C867        C868   1.411       .  A
C868       Br869   1.924       .  S
C873        C874   1.403       .  A
C873        C878   1.387       .  A
C873       Br880   1.936       .  S
C874        C875   1.408       .  A
C875        C876   1.413       .  A
C875       Br882   1.923   1_554  S
C876        C877   1.409       .  A
C876       Br881   1.924   1_565  S
C877        C878   1.409       .  A
C878       Br879   1.934       .  S
C883        C884   1.408       .  A
C883        C888   1.405       .  A
C883       Br890   1.930       .  S
C884        C885   1.415       .  A
C885        C886   1.404       .  A
C885       Br892   1.934       .  S
C886        C887   1.408       .  A
C886       Br891   1.933       .  S
C887        C888   1.412       .  A
C888       Br889   1.932       .  S
C893        C894   1.406       .  A
C893        C898   1.400       .  A
C893       Br900   1.926       .  S
C894        C895   1.428       .  A
C895        C896   1.402       .  A
C895       Br902   1.937       .  S
C896        C897   1.398       .  A
C896       Br901   1.933       .  S
C897        C898   1.413       .  A
C898       Br899   1.934       .  S
C903        C904   1.407       .  A
C903        C908   1.411       .  A
C903       Br910   1.926       .  S
C904        C905   1.410       .  A
C905        C906   1.384       .  A
C905       Br912   1.931       .  S
C906        C907   1.408       .  A
C906       Br911   1.939       .  S
C907        C908   1.414       .  A
C908       Br909   1.928       .  S
C913        C914   1.393       .  A
C913        C918   1.387       .  A
C913       Br920   1.920       .  S
C914        C915   1.403       .  A
C915        C916   1.394       .  A
C915       Br922   1.929       .  S
C916        C917   1.403       .  A
C916       Br921   1.929       .  S
C917        C918   1.408       .  A
C918      Br1243   1.938       .  S
Br919      C1242   1.938       .  S
C923       C1248   1.408       .  A
C923       C1252   1.388       .  A
C923       Br930   1.934       .  S
C924       C1247   1.409   1_554  A
C924        C925   1.401       .  A
C925        C926   1.391       .  A
C925       Br932   1.932       .  S
C926        C927   1.404       .  A
C926       Br931   1.929       .  S
C927        C928   1.394   1_554  A
C928       C1247   1.387       .  A
C928      Br1253   1.931       .  S
Br929      C1252   1.931       .  S
C933        C934   1.396       .  A
C933        C938   1.390       .  A
C933       Br940   1.927       .  S
C935        C936   1.395       .  A
C935       Br942   1.936       .  S
C936        C937   1.400       .  A
C936       Br941   1.931       .  S
C938       Br939   1.931       .  S
C943        C944   1.395       .  A
C943       Br950   1.923       .  S
C945        C946   1.390       .  A
C946        C947   1.415       .  A
C946       Br951   1.935       .  S
C947        C948   1.411       .  A
C948       Br949   1.931       .  S
C953        C954   1.398       .  A
C953        C958   1.398       .  A
C953       Br960   1.908       .  S
C954        C955   1.398       .  A
C955       C2252   1.399       .  A
C955      Br2258   1.926       .  S
C956       C2251   1.399       .  A
C956        C957   1.415       .  A
C956       Br961   1.931       .  S
C957       C2254   1.405   1_655  A
C958       C2253   1.405       .  A
C958       Br959   1.927       .  S
Br962      C2251   1.926       .  S
C963        C964   1.394       .  A
C963       C2264   1.398       .  A
C963       Br970   1.925       .  S
C964       C2261   1.396       .  A
C965       C2260   1.396       .  A
C965        C966   1.400       .  A
C965       Br972   1.906       .  S
C966        C967   1.407       .  A
C966       Br971   1.925       .  S
C967        C968   1.415       .  A
C968       C2259   1.398       .  A
C968      Br2265   1.920       .  S
Br969      C2264   1.920       .  S
C973        C974   1.534       .  S
C973        C979   1.567       .  S
C973        C977   1.572       .  S
C973       C1107   1.601       .  S
C974        H981   1.087       .  S
C974        C975   1.366       .  D
C975        C976   1.587       .  S
C975       C1017   1.530       .  S
C976        C980   1.596       .  S
C976        C978   1.586       .  S
C976        H982   1.110       .  S
C977        H983   1.085       .  S
C977        C978   1.392       .  D
C978       C1062   1.569       .  S
C979        H984   1.085       .  S
C979        C980   1.385       .  D
C980       C1140   1.573       .  S
C985        C986   1.543       .  S
C985        C991   1.530       .  S
C985        C989   1.555       .  S
C985       C1027   1.572       .  S
C986        H993   1.086       .  S
C986        C987   1.372       .  D
C987        C988   1.623       .  S
C987       C1072   1.581       .  S
C988        C992   1.620       .  S
C988        C990   1.597       .  S
C988        H994   1.109       .  S
C989        H995   1.086       .  S
C989        C990   1.386       .  D
C990       C1176   1.570       .  S
C991        H996   1.087       .  S
C991        C992   1.370       .  D
C992       C1117   1.562       .  S
N997        N998   1.317       .  A
N997       N1003   1.318       .  A
N998       C1005   1.354       .  A
N999       N2297   1.319       .  A
N999       N1000   1.318       .  A
N999      Mn1015   2.240       .  S
N1000      C2302   1.355       .  A
N1001      N2295   1.319       .  A
N1001      N1002   1.318       .  A
N1001     Mn1026   2.144       .  S
N1002      C1006   1.342       .  A
N1003      N1004   1.308       .  A
N1003     Mn1663   2.125   1_465  S
N1004      C1005   1.337       .  A
C1005      C1258   1.436       .  S
C1006      N2296   1.355       .  A
C1006      C1288   1.459       .  S
N1007      N1013   1.308       .  A
N1009      N1010   1.330       .  A
N1009      N1011   1.313       .  A
N1010      C1017   1.365       .  A
N1011      N1012   1.336       .  A
N1012      C1017   1.363       .  A
N1013      N1014   1.310       .  A
N1013     Mn1015   2.137       .  S
N1014      C1016   1.343       .  A
Mn1015     N1651   2.136       .  S
Mn1015    Cl1039   2.517   1_556  S
C1016      C1241   1.431       .  S
N1018      N1019   1.329       .  A
N1018      N1024   1.315       .  A
N1019      C1027   1.361       .  A
N1020      N1021   1.306       .  A
N1020     Mn1038   2.121       .  S
N1021      C1028   1.340       .  A
N1022      N1023   1.311       .  A
N1024      N1025   1.337       .  A
N1025      C1027   1.370       .  A
Mn1026    Cl2335   2.565   1_456  S
C1028      C1248   1.425       .  S
N1029      N1030   1.318       .  A
N1029      N1035   1.320       .  A
N1029     Mn1037   2.159       .  S
N1030      C1040   1.346       .  A
N1031      N1032   1.308       .  A
N1031      N1033   1.320       .  A
N1031     Mn1686   2.133       .  S
N1032      C1041   1.338       .  A
N1033      N1034   1.317       .  A
N1034      C1041   1.352       .  A
N1035      N2332   1.315       .  A
N1035     Mn2334   2.232       .  S
N1036      N2331   1.315       .  A
N1036      C2336   1.353       .  A
Mn1038     N1679   2.135   1_465  S
Mn1038     N2331   2.233   1_455  S
Mn1038    Cl1363   2.527   1_465  S
Cl1039    Mn2322   2.565   1_554  S
Cl1039    Mn1362   2.526       .  S
C1040      N2332   1.352       .  A
C1040      C1278   1.456       .  S
C1041      C1271   1.450       .  S
N1042      N1043   1.311       .  A
N1042      N1048   1.322       .  A
N1043      C1050   1.347       .  A
N1044      N1046   1.323       .  A
N1044      N1045   1.321       .  A
N1044     Mn1060   2.247       .  S
N1045      C1051   1.355       .  A
N1046      N1047   1.314       .  A
N1046     Mn1071   2.181       .  S
N1047      C1051   1.347       .  A
N1048      N1049   1.314       .  A
N1049      C1050   1.339       .  A
C1050      C1238   1.428   1_554  S
C1051      C1228   1.462       .  S
N1052      N1058   1.307       .  A
N1052      N1053   1.325       .  A
N1053      C1061   1.360       .  A
N1054      N1055   1.342       .  A
N1054      N1056   1.315       .  A
N1055      C1062   1.373       .  A
N1056      N1057   1.340       .  A
N1056     Mn1082   2.289       .  S
N1057      C1062   1.368       .  A
N1058      N1059   1.305       .  A
N1058     Mn1060   2.135       .  S
N1059      C1061   1.344       .  A
Mn1060    Cl1084   2.563       .  S
C1061      C1198   1.456       .  S
N1063      N1064   1.346       .  A
N1063      N1069   1.317       .  A
N1063     Mn1071   2.287       .  S
N1064      C1072   1.371       .  A
N1065      N1067   1.309   1_556  A
N1065      N1066   1.311       .  A
N1065     Mn1083   2.144       .  S
N1066      C1073   1.347       .  A
N1067      N1068   1.324       .  A
N1068      C1073   1.360   1_554  A
N1069      N1070   1.339       .  A
N1070      C1072   1.377       .  A
Mn1071    Cl1084   2.559       .  S
C1073      C1208   1.477       .  S
N1074      N1075   1.309       .  A
N1074      N1080   1.321       .  A
N1074     Mn1082   2.148       .  S
N1075      C1085   1.340       .  A
N1076      N1077   1.313       .  A
N1076      N1078   1.321       .  A
N1077      C1086   1.338       .  A
N1078      N1079   1.309       .  A
N1079      C1086   1.346       .  A
N1080      N1081   1.323       .  A
N1080     Mn1083   2.265       .  S
N1081      C1085   1.363       .  A
C1085      C1221   1.475       .  S
C1086      C1251   1.422       .  S
N1087      N1088   1.313       .  A
N1087      N1093   1.315       .  A
N1087     Mn1116   2.239       .  S
N1088      C1095   1.350       .  A
N1089      N1091   1.318       .  A
N1089      N2386   1.318       .  A
N1089     Mn1105   2.221       .  S
N1090      N2385   1.318       .  A
N1090      C1096   1.352   1_655  A
N1091      N2388   1.314       .  A
N1091     Mn1116   2.146       .  S
N1092      N2387   1.314       .  A
N1092      C1096   1.341       .  A
N1093      N1094   1.315       .  A
N1093     Mn1105   2.138       .  S
N1094      C1095   1.348       .  A
C1095      C1231   1.464       .  S
C1096      C1281   1.456   1_455  S
N1097      N1103   1.317       .  A
N1097      N1098   1.316       .  A
N1097     Mn1127   2.175       .  S
N1098      C1106   1.345       .  A
N1099      N1100   1.337       .  A
N1099      N1101   1.314       .  A
N1099     Mn1105   2.260       .  S
N1100      C1107   1.365       .  A
N1101      N1102   1.343       .  A
N1101     Mn2423   2.323       .  S
N1102      C1107   1.377       .  A
N1103      N1104   1.317       .  A
N1103     Mn2401   2.166   1_455  S
N1104      C1106   1.344       .  A
Mn1105     N2399   2.165       .  S
Mn1105    Cl1129   2.553       .  S
C1106      C1191   1.456       .  S
N1108      N1109   1.333       .  A
N1108      N1114   1.312       .  A
N1108     Mn2412   2.251   1_455  S
N1109      C1117   1.367       .  A
N1110      N1112   1.308       .  A
N1110      N1111   1.327       .  A
N1110     Mn2424   2.193       .  S
N1111      C1118   1.358       .  A
N1112      N1113   1.307       .  A
N1112     Mn1116   2.148       .  S
N1113      C1118   1.337       .  A
N1114      N1115   1.346       .  A
N1114     Mn1128   2.332       .  S
N1115      C1117   1.377       .  A
Mn1116     N2404   2.251       .  S
Mn1116    Cl1129   2.534       .  S
C1118      C1178   1.493       .  S
N1119      N2416   1.312   1_455  A
N1119      N1125   1.323       .  A
N1119     Mn1127   2.142       .  S
N1120      N2415   1.312       .  A
N1120      C1130   1.338       .  A
N1121      N1122   1.307       .  A
N1121      N1123   1.319       .  A
N1121     Mn1128   2.119       .  S
N1122      C1131   1.334       .  A
N1123      N1124   1.329       .  A
N1123     Mn1127   2.287       .  S
N1124      C1131   1.367       .  A
N1125      N2422   1.320       .  A
N1125     Mn1128   2.248       .  S
N1126      N2421   1.320       .  A
N1126      C1130   1.355       .  A
Mn1127     N2397   2.323   1_455  S
Mn1127    Cl2425   2.534       .  S
Mn1128     N2406   2.194   1_455  S
Mn1128    Cl2425   2.531       .  S
Cl1129    Mn2423   2.534       .  S
Cl1129    Mn2424   2.531       .  S
C1130      C1291   1.453       .  S
C1131      C1218   1.477       .  S
N1132      N1133   1.343       .  A
N1132      N1138   1.320       .  A
N1132     Mn1161   2.295       .  S
N1133      C1140   1.371       .  A
N1134      N1136   1.313       .  A
N1134      N1135   1.314       .  A
N1134     Mn1150   2.166       .  S
N1135      C1141   1.350       .  A
N1136      N1137   1.321       .  A
N1137      C1141   1.355       .  A
N1138      N1139   1.341       .  A
N1139      C1140   1.369       .  A
C1141      C1211   1.472       .  S
N1142      N1148   1.328       .  A
N1142      N1143   1.317       .  A
N1142     Mn1172   2.201       .  S
N1143      C1151   1.348       .  A
N1144      N1145   1.315       .  A
N1144      N1146   1.324       .  A
N1145      C1152   1.341       .  A
N1146      N1147   1.310       .  A
N1147      C1152   1.344       .  A
N1148      N1149   1.320       .  A
N1148     Mn1150   2.247       .  S
N1149      C1151   1.352       .  A
Mn1150    Cl1174   2.536       .  S
C1151      C1181   1.487       .  S
C1152      C1268   1.430       .  S
N1153      N1154   1.308       .  A
N1153      N1159   1.320       .  A
N1154      C1162   1.341       .  A
N1155      N1157   1.321       .  A
N1155      N1156   1.310       .  A
N1155     Mn1173   2.213       .  S
N1156      C1163   1.331       .  A
N1157      N1158   1.326       .  A
N1157     Mn1161   2.227       .  S
N1158      C1163   1.361       .  A
N1159      N1160   1.320       .  A
N1160      C1162   1.348       .  A
C1162      C1261   1.442       .  S
C1163      C1188   1.478       .  S
N1164      N1165   1.329       .  A
N1164      N1170   1.304       .  A
N1165      C1175   1.363   1_545  A
N1166      N1167   1.334       .  A
N1166      N1168   1.319       .  A
N1167      C1176   1.363       .  A
N1168      N1169   1.348       .  A
N1168     Mn1172   2.326       .  S
N1169      C1176   1.376       .  A
N1170      N1171   1.303   1_545  A
N1170     Mn1173   2.112   1_545  S
N1171      C1175   1.340       .  A
Mn1172    Cl1174   2.573       .  S
C1175      C1201   1.463       .  S
C1177      C1178   1.424       .  A
C1177      C1182   1.399       .  A
C1177     Br1184   1.940       .  S
C1178      C1179   1.423       .  A
C1179      C1180   1.412       .  A
C1179     Br1186   1.929       .  S
C1180      C1181   1.404       .  A
C1180     Br1185   1.923       .  S
C1181      C1182   1.407       .  A
C1182     Br1183   1.936       .  S
C1187      C1188   1.401       .  A
C1187      C1192   1.404       .  A
C1187     Br1194   1.927       .  S
C1188      C1189   1.433       .  A
C1189      C1190   1.397       .  A
C1189     Br1196   1.941       .  S
C1190      C1191   1.394       .  A
C1190     Br1195   1.937       .  S
C1191      C1192   1.410       .  A
C1192     Br1193   1.925       .  S
C1197      C1198   1.404       .  A
C1197      C1202   1.387       .  A
C1197     Br1204   1.937       .  S
C1198      C1199   1.408       .  A
C1199      C1200   1.413       .  A
C1199     Br1206   1.924       .  S
C1200      C1201   1.410       .  A
C1200     Br1205   1.924   1_565  S
C1201      C1202   1.410       .  A
C1202     Br1203   1.935       .  S
C1207      C1208   1.408       .  A
C1207      C1212   1.405       .  A
C1207     Br1214   1.930       .  S
C1208      C1209   1.415       .  A
C1209      C1210   1.404       .  A
C1209     Br1216   1.934       .  S
C1210      C1211   1.408       .  A
C1210     Br1215   1.933       .  S
C1211      C1212   1.412       .  A
C1212     Br1213   1.931       .  S
C1217      C1218   1.407       .  A
C1217      C1222   1.401       .  A
C1217     Br1224   1.926       .  S
C1218      C1219   1.429       .  A
C1219      C1220   1.403       .  A
C1219     Br1226   1.935       .  S
C1220      C1221   1.396       .  A
C1220     Br1225   1.932       .  S
C1221      C1222   1.413       .  A
C1222     Br1223   1.934       .  S
C1227      C1228   1.406       .  A
C1227      C1232   1.410       .  A
C1227     Br1234   1.926       .  S
C1228      C1229   1.411       .  A
C1229      C1230   1.387       .  A
C1229     Br1236   1.933       .  S
C1230      C1231   1.410       .  A
C1230     Br1235   1.941       .  S
C1231      C1232   1.413       .  A
C1232     Br1233   1.929       .  S
C1237      C1238   1.393   1_554  A
C1237      C1242   1.388       .  A
C1237     Br1244   1.922       .  S
C1238      C1239   1.403       .  A
C1239      C1240   1.394       .  A
C1239     Br1246   1.929       .  S
C1240      C1241   1.403       .  A
C1240     Br1245   1.929       .  S
C1241      C1242   1.408   1_556  A
C1247     Br1254   1.935       .  S
C1248      C1249   1.401       .  A
C1249      C1250   1.391       .  A
C1249     Br1256   1.932       .  S
C1250      C1251   1.403       .  A
C1250     Br1255   1.928       .  S
C1251      C1252   1.394       .  A
C1257      C1258   1.396       .  A
C1257      C1262   1.390       .  A
C1257     Br1264   1.926       .  S
C1259      C1260   1.395       .  A
C1259     Br1266   1.936       .  S
C1260      C1261   1.401       .  A
C1260     Br1265   1.932       .  S
C1262     Br1263   1.932       .  S
C1267      C1268   1.396       .  A
C1267     Br1274   1.923       .  S
C1269      C1270   1.391       .  A
C1270      C1271   1.416       .  A
C1270     Br1275   1.934       .  S
C1271      C1272   1.412       .  A
C1272     Br1273   1.932       .  S
C1277      C1278   1.398       .  A
C1277      C1282   1.399       .  A
C1277     Br1284   1.910       .  S
C1278      C1279   1.398       .  A
C1279      C2576   1.399       .  A
C1279     Br2582   1.927       .  S
C1280      C2575   1.399       .  A
C1280      C1281   1.416       .  A
C1280     Br1285   1.931       .  S
C1281      C2578   1.407   1_655  A
C1282      C2577   1.406       .  A
C1282     Br1283   1.927       .  S
Br1286     C2575   1.927       .  S
C1287      C1288   1.394       .  A
C1287      C2588   1.398       .  A
C1287     Br1294   1.923       .  S
C1288      C2585   1.396       .  A
C1289      C2584   1.396       .  A
C1289      C1290   1.399       .  A
C1289     Br1296   1.905       .  S
C1290      C1291   1.407       .  A
C1290     Br1295   1.925       .  S
C1291      C1292   1.416       .  A
C1292      C2583   1.398       .  A
C1292     Br2589   1.923       .  S
Br1293     C2588   1.923       .  S
C1297      C1298   1.532       .  S
C1297      C1303   1.567       .  S
C1297      C1301   1.571       .  S
C1297      C1431   1.601       .  S
C1298      H1305   1.087       .  S
C1298      C1299   1.366       .  D
C1299      C1300   1.590       .  S
C1299      C1341   1.533       .  S
C1300      C1304   1.594       .  S
C1300      C1302   1.589       .  S
C1300      H1306   1.110       .  S
C1301      H1307   1.085       .  S
C1301      C1302   1.392       .  D
C1302      C1386   1.572       .  S
C1303      H1308   1.085       .  S
C1303      C1304   1.384       .  D
C1304      C1464   1.570       .  S
C1309      C1310   1.543       .  S
C1309      C1315   1.533       .  S
C1309      C1313   1.553       .  S
C1309      C1351   1.571       .  S
C1310      H1317   1.086       .  S
C1310      C1311   1.371       .  D
C1311      C1312   1.626       .  S
C1311      C1396   1.585       .  S
C1312      C1316   1.623       .  S
C1312      C1314   1.598       .  S
C1312      H1318   1.109       .  S
C1313      H1319   1.086       .  S
C1313      C1314   1.385       .  D
C1314      C1500   1.570       .  S
C1315      H1320   1.086       .  S
C1315      C1316   1.371       .  D
C1316      C1441   1.568       .  S
N1321      N1322   1.318       .  A
N1321      N1327   1.318       .  A
N1321     Mn1998   2.218       .  S
N1322      C1329   1.354       .  A
N1323      N1324   1.316       .  A
N1323     Mn1339   2.234   1_455  S
N1325      N1326   1.314       .  A
N1325     Mn1350   2.122       .  S
N1326      C1330   1.339       .  A
N1327      N1328   1.310       .  A
N1328      C1329   1.339       .  A
C1329      C1582   1.442       .  S
C1330      C1612   1.451       .  S
N1331      N1337   1.309       .  A
N1331      N1656   1.313       .  A
N1331     Mn2333   2.158   1_545  S
N1332      N1655   1.314       .  A
N1332      C1664   1.351       .  A
N1333      N1334   1.330       .  A
N1333      N1335   1.315       .  A
N1333     Mn1987   2.266       .  S
N1334      C1341   1.366       .  A
N1335      N1336   1.337       .  A
N1335     Mn1685   2.257       .  S
N1336      C1341   1.364       .  A
N1337      N1338   1.306       .  A
N1337     Mn1339   2.126       .  S
N1338      C1340   1.340       .  A
Mn1339     N1981   2.259   1_545  S
Mn1339    Cl1363   2.520       .  S
C1340      N1656   1.350       .  A
C1340      C1565   1.433       .  S
N1342      N1343   1.329       .  A
N1342      N1348   1.317       .  A
N1342     Mn1674   2.252   1_554  S
N1343      C1351   1.361       .  A
N1344      N1670   1.309       .  A
N1344      N1345   1.310       .  A
N1344     Mn1362   2.127       .  S
N1345      C1352   1.340       .  A
N1346      N1668   1.309       .  A
N1346      N1347   1.311       .  A
N1346     Mn1998   2.165       .  S
N1347      C1676   1.352       .  A
N1348      N1349   1.337       .  A
N1348     Mn2010   2.276   1_545  S
N1349      C1351   1.369       .  A
Mn1350     N1969   2.222   1_545  S
Mn1350     N1666   2.259       .  S
Mn1350     N1994   2.145   1_545  S
C1352      N1671   1.352       .  A
C1352      C1572   1.436       .  S
N1353      N1354   1.318       .  A
N1353      N1359   1.319       .  A
N1353     Mn1361   2.151       .  S
N1354      C1364   1.345       .  A
N1355      N1356   1.310       .  A
N1355      N1357   1.318       .  A
N1356      C1365   1.339       .  A
N1357      N1358   1.313       .  A
N1357     Mn2009   2.199   1_545  S
N1358      C1365   1.348       .  A
Mn1361     N2303   2.154   1_554  S
Mn1361     N1659   2.257   1_554  S
Mn1361     N2005   2.221       .  S
Mn1361    Cl2335   2.568       .  S
Mn1362     N1996   2.274       .  S
Cl1363    Mn2333   2.562   1_545  S
C1364      C1602   1.452       .  S
C1365      C1595   1.443       .  S
N1366      N1367   1.308       .  A
N1366      N1372   1.321       .  A
N1366     Mn1719   2.195       .  S
N1367      C1374   1.343       .  A
N1368      N1370   1.323       .  A
N1368      N1369   1.317       .  A
N1368     Mn1384   2.234       .  S
N1369      C1375   1.350       .  A
N1370      N1371   1.314       .  A
N1370     Mn1395   2.176       .  S
N1371      C1375   1.347       .  A
N1372      N1373   1.315       .  A
N1372     Mn1708   2.150       .  S
N1373      C1374   1.343       .  A
C1374      C1562   1.428       .  S
C1375      C1552   1.455       .  S
N1376      N1382   1.307   1_556  A
N1376      N1377   1.325   1_556  A
N1376     Mn1730   2.199       .  S
N1377      C1385   1.361       .  A
N1378      N1379   1.341       .  A
N1378      N1380   1.317       .  A
N1378     Mn1708   2.286       .  S
N1379      C1386   1.371       .  A
N1380      N1381   1.342       .  A
N1380     Mn1406   2.313       .  S
N1381      C1386   1.372       .  A
N1382      N1383   1.306       .  A
N1382     Mn1384   2.141       .  S
N1383      C1385   1.344       .  A
Mn1384     N1696   2.152       .  S
Mn1384     N1702   2.284   1_554  S
Mn1384    Cl1408   2.555       .  S
C1385      C1522   1.457       .  S
N1387      N1388   1.347       .  A
N1387      N1393   1.317       .  A
N1387     Mn1395   2.287       .  S
N1388      C1396   1.371       .  A
N1389      N1391   1.308       .  A
N1389      N1390   1.311       .  A
N1389     Mn1407   2.145       .  S
N1390      C1397   1.348       .  A
N1391      N1392   1.323       .  A
N1391     Mn1719   2.212       .  S
N1392      C1397   1.359       .  A
N1393      N1394   1.339       .  A
N1393     Mn1731   2.335   1_554  S
N1394      C1396   1.377       .  A
Mn1395     N1690   2.200       .  S
Mn1395     N1715   2.209       .  S
Mn1395    Cl1408   2.567       .  S
C1397      C1532   1.477       .  S
N1398      N1399   1.309       .  A
N1398      N1404   1.321       .  A
N1398     Mn1406   2.160       .  S
N1399      C1409   1.343       .  A
N1400      N1401   1.312       .  A
N1400      N1402   1.323       .  A
N1400     Mn1731   2.127       .  S
N1401      C1410   1.335       .  A
N1402      N1403   1.315       .  A
N1402     Mn1730   2.239       .  S
N1403      C1410   1.352       .  A
N1404      N1405   1.322       .  A
N1404     Mn1407   2.247       .  S
N1405      C1409   1.360       .  A
Mn1406     N1700   2.205       .  S
Mn1406     N1726   2.240       .  S
Mn1406    Cl1732   2.558       .  S
Mn1407     N1717   2.329       .  S
Mn1407     N1724   2.125       .  S
Mn1407    Cl1732   2.555       .  S
Cl1408    Mn1730   2.557   1_554  S
Cl1408    Mn1731   2.556   1_554  S
C1409      C1545   1.475       .  S
C1410      C1575   1.432   1_556  S
N1411      N1412   1.314       .  A
N1411      N1417   1.316       .  A
N1411     Mn1440   2.228       .  S
N1412      C1419   1.350       .  A
N1413      N1415   1.320   1_655  A
N1413     Mn1429   2.204       .  S
N1414      C1420   1.347       .  A
N1415     Mn1440   2.155   1_455  S
N1416      C1420   1.343       .  A
N1417      N1418   1.312       .  A
N1417     Mn1429   2.132       .  S
N1418      C1419   1.345       .  A
C1419      C1555   1.450       .  S
C1420      C1605   1.457       .  S
N1421      N1427   1.316       .  A
N1421      N1422   1.317       .  A
N1421     Mn1451   2.172       .  S
N1422      C1430   1.345       .  A
N1423      N1424   1.336       .  A
N1423      N1425   1.311       .  A
N1423     Mn1429   2.248       .  S
N1424      C1431   1.364       .  A
N1425      N1426   1.343       .  A
N1426      C1431   1.379       .  A
N1427      N1428   1.317       .  A
N1428      C1430   1.344       .  A
Mn1429    Cl1453   2.543   1_655  S
C1430      C1515   1.460       .  S
N1432      N1433   1.334       .  A
N1432      N1438   1.313       .  A
N1433      C1441   1.369       .  A
N1434      N1436   1.308       .  A
N1434      N1435   1.328       .  A
N1435      C1442   1.358       .  A
N1436      N1437   1.309       .  A
N1436     Mn1440   2.152       .  S
N1437      C1442   1.338       .  A
N1438      N1439   1.346       .  A
N1438     Mn1452   2.337       .  S
N1439      C1441   1.378       .  A
Mn1440    Cl1453   2.533   1_655  S
C1442      C1502   1.500       .  S
N1443      N1449   1.322       .  A
N1443     Mn1451   2.127       .  S
N1444      C1454   1.335       .  A
N1445      N1446   1.307       .  A
N1445      N1447   1.319       .  A
N1445     Mn1452   2.120       .  S
N1446      C1455   1.335       .  A
N1447      N1448   1.328       .  A
N1447     Mn1451   2.284       .  S
N1448      C1455   1.366       .  A
N1449     Mn1452   2.247       .  S
N1450      C1454   1.356   1_455  A
C1454      C1615   1.445   1_655  S
C1455      C1542   1.475       .  S
N1456      N1457   1.342       .  A
N1456      N1462   1.320       .  A
N1456     Mn1485   2.290       .  S
N1457      C1464   1.370       .  A
N1458      N1460   1.311   1_545  A
N1458      N1459   1.312       .  A
N1458     Mn1474   2.152       .  S
N1459      C1465   1.348       .  A
N1460      N1461   1.323       .  A
N1460     Mn2133   2.209       .  S
N1461      C1465   1.357   1_565  A
N1462      N1463   1.341       .  A
N1462     Mn2122   2.311       .  S
N1463      C1464   1.370       .  A
C1465      C1535   1.472       .  S
N1466      N1472   1.327       .  A
N1466      N1467   1.317       .  A
N1466     Mn1496   2.204       .  S
N1467      C1475   1.350       .  A
N1468      N1469   1.317       .  A
N1468      N1470   1.323       .  A
N1468     Mn2122   2.150       .  S
N1469      C1476   1.342       .  A
N1470      N1471   1.310       .  A
N1470     Mn2144   2.219       .  S
N1471      C1476   1.346       .  A
N1472      N1473   1.317       .  A
N1472     Mn1474   2.233       .  S
N1473      C1475   1.350       .  A
Mn1474     N2110   2.310   1_545  S
Mn1474     N2116   2.144       .  S
Mn1474    Cl1498   2.529       .  S
C1475      C1505   1.489       .  S
C1476      C1592   1.436       .  S
N1477      N1478   1.306       .  A
N1477      N1483   1.319       .  A
N1477     Mn2133   2.161       .  S
N1478      C1486   1.341       .  A
N1479      N1481   1.320       .  A
N1479      N1480   1.309       .  A
N1479     Mn1497   2.206       .  S
N1480      C1487   1.330       .  A
N1481      N1482   1.326       .  A
N1481     Mn1485   2.223       .  S
N1482      C1487   1.361       .  A
N1483      N1484   1.317       .  A
N1483     Mn2145   2.169       .  S
N1484      C1486   1.345       .  A
Mn1485     N2108   2.207       .  S
Mn1485     N2125   2.168       .  S
Mn1485    Cl2146   2.586       .  S
C1486      C1585   1.434       .  S
C1487      C1512   1.477       .  S
N1488      N1489   1.328       .  A
N1488      N1494   1.304       .  A
N1488     Mn2144   2.204       .  S
N1489      C1499   1.362       .  A
N1490      N1491   1.334       .  A
N1490      N1492   1.319       .  A
N1490     Mn2145   2.258   1_545  S
N1491      C1500   1.364       .  A
N1492      N1493   1.347       .  A
N1492     Mn1496   2.322       .  S
N1493      C1500   1.375       .  A
N1494      N1495   1.304       .  A
N1494     Mn1497   2.116       .  S
N1495      C1499   1.339       .  A
Mn1496     N2118   2.209       .  S
Mn1496     N2136   2.210       .  S
Mn1496    Cl1498   2.577       .  S
Mn1497     N2131   2.187       .  S
Mn1497     N2138   2.265       .  S
Mn1497    Cl2146   2.517       .  S
Cl1498    Mn2133   2.588   1_545  S
Cl1498    Mn2145   2.513   1_545  S
C1499      C1525   1.463       .  S
C1501      C1502   1.427       .  A
C1501      C1506   1.401       .  A
C1501     Br1508   1.942       .  S
C1502      C1503   1.424       .  A
C1503      C1504   1.413       .  A
C1503     Br1510   1.930       .  S
C1504      C1505   1.407       .  A
C1504     Br1509   1.927       .  S
C1505      C1506   1.406       .  A
C1506     Br1507   1.937       .  S
C1511      C1512   1.400       .  A
C1511      C1516   1.403       .  A
C1511     Br1518   1.928       .  S
C1512      C1513   1.434       .  A
C1513      C1514   1.398       .  A
C1513     Br1520   1.942       .  S
C1514      C1515   1.396       .  A
C1514     Br1519   1.938       .  S
C1515      C1516   1.410       .  A
C1516     Br1517   1.922       .  S
C1521      C1522   1.404       .  A
C1521      C1526   1.389       .  A
C1521     Br1528   1.937       .  S
C1522      C1523   1.407       .  A
C1523      C1524   1.412       .  A
C1523     Br1530   1.922       .  S
C1524      C1525   1.409       .  A
C1524     Br1529   1.925       .  S
C1525      C1526   1.410       .  A
C1526     Br1527   1.935       .  S
C1531      C1532   1.409       .  A
C1531      C1536   1.404       .  A
C1531     Br1538   1.929       .  S
C1532      C1533   1.415       .  A
C1533      C1534   1.405       .  A
C1533     Br1540   1.934       .  S
C1534      C1535   1.407       .  A
C1534     Br1539   1.932       .  S
C1535      C1536   1.412       .  A
C1536     Br1537   1.934       .  S
C1541      C1542   1.408       .  A
C1541      C1546   1.399       .  A
C1541     Br1548   1.925       .  S
C1542      C1543   1.429       .  A
C1543      C1544   1.404       .  A
C1543     Br1550   1.935       .  S
C1544      C1545   1.399       .  A
C1544     Br1549   1.932       .  S
C1545      C1546   1.409       .  A
C1546     Br1547   1.932       .  S
C1551      C1552   1.404       .  A
C1551      C1556   1.404       .  A
C1551     Br1558   1.926       .  S
C1552      C1553   1.415       .  A
C1553      C1554   1.387       .  A
C1553     Br1560   1.935       .  S
C1554      C1555   1.412       .  A
C1554     Br1559   1.951       .  S
C1555      C1556   1.409       .  A
C1556     Br1557   1.930       .  S
C1561      C1562   1.398       .  A
C1561      C1566   1.388       .  A
C1561     Br1568   1.919       .  S
C1562      C1563   1.402       .  A
C1563      C1564   1.392       .  A
C1563     Br1570   1.932       .  S
C1564      C1565   1.406       .  A
C1564     Br1569   1.932       .  S
C1565      C1566   1.407       .  A
C1566     Br1891   1.937       .  S
Br1567     C1890   1.936       .  S
C1571      C1896   1.408       .  A
C1571      C1900   1.388       .  A
C1571     Br1578   1.934       .  S
C1572      C1895   1.408   1_554  A
C1572      C1573   1.404       .  A
C1573      C1574   1.394       .  A
C1573     Br1580   1.931       .  S
C1574      C1575   1.404       .  A
C1574     Br1579   1.930       .  S
C1575      C1576   1.395   1_554  A
C1576      C1895   1.389       .  A
C1576     Br1901   1.928       .  S
Br1577     C1900   1.928       .  S
C1581      C1582   1.398       .  A
C1581      C1586   1.395       .  A
C1581     Br1588   1.928       .  S
C1582      C2231   1.412       .  A
C1583      C2230   1.411   1_545  A
C1583      C1584   1.393       .  A
C1583     Br1590   1.936       .  S
C1584      C1585   1.400   1_545  A
C1584     Br1589   1.933       .  S
C1585      C2234   1.408       .  A
C1586      C2233   1.409       .  A
C1586     Br1587   1.926       .  S
C1591      C1592   1.396       .  A
C1591      C2244   1.397       .  A
C1591     Br1598   1.922       .  S
C1592      C2241   1.397       .  A
C1593      C2240   1.397   1_565  A
C1593      C1594   1.389       .  A
C1593     Br2248   1.931       .  S
C1594      C1595   1.414   1_565  A
C1594     Br1599   1.937       .  S
C1595      C1596   1.409       .  A
C1596      C2239   1.393       .  A
C1596     Br1597   1.932       .  S
Br1600     C2241   1.932       .  S
C1601      C1602   1.400       .  A
C1601      C1606   1.400   1_655  A
C1601     Br1608   1.917   1_655  S
C1602      C1603   1.395       .  A
C1604      C1605   1.420       .  A
C1604     Br1609   1.935       .  S
C1606     Br1607   1.929       .  S
C1611      C1612   1.397       .  A
C1611     Br1618   1.926       .  S
C1613      C1614   1.397       .  A
C1613     Br1620   1.909       .  S
C1614      C1615   1.403   1_655  A
C1614     Br1619   1.923       .  S
C1615      C1616   1.413       .  A
C1621      C1622   1.533       .  S
C1621      C1627   1.569       .  S
C1621      C1625   1.572       .  S
C1621      C1755   1.604       .  S
C1622      H1629   1.087       .  S
C1622      C1623   1.367       .  D
C1623      C1624   1.588       .  S
C1623      C1665   1.531       .  S
C1624      C1628   1.592       .  S
C1624      C1626   1.588       .  S
C1624      H1630   1.110       .  S
C1625      H1631   1.085       .  S
C1625      C1626   1.392       .  D
C1626      C1710   1.571       .  S
C1627      H1632   1.085       .  S
C1627      C1628   1.386       .  D
C1628      C1788   1.569       .  S
C1633      C1634   1.542       .  S
C1633      C1639   1.533       .  S
C1633      C1637   1.557       .  S
C1633      C1675   1.574       .  S
C1634      H1641   1.086       .  S
C1634      C1635   1.371       .  D
C1635      C1636   1.625       .  S
C1635      C1720   1.582       .  S
C1636      C1640   1.622       .  S
C1636      C1638   1.598       .  S
C1636      H1642   1.109       .  S
C1637      H1643   1.086       .  S
C1637      C1638   1.387       .  D
C1638      C1824   1.574       .  S
C1639      H1644   1.086       .  S
C1639      C1640   1.371       .  D
C1640      C1765   1.568       .  S
N1645      N1646   1.318       .  A
N1645      N1651   1.317       .  A
N1645     Mn2322   2.219       .  S
N1646      C1653   1.354       .  A
N1647      N1648   1.317       .  A
N1647     Mn1663   2.235   1_455  S
N1649      N1650   1.315       .  A
N1649     Mn1674   2.121       .  S
N1650      C1654   1.339       .  A
N1651      N1652   1.310       .  A
N1652      C1653   1.339       .  A
C1653      C1906   1.442       .  S
C1654      C1936   1.452       .  S
N1655      N1661   1.309       .  A
N1655     Mn2009   2.161   1_546  S
N1657      N1658   1.330       .  A
N1657      N1659   1.315       .  A
N1657     Mn2311   2.263       .  S
N1658      C1665   1.365       .  A
N1659      N1660   1.336       .  A
N1660      C1665   1.364       .  A
N1661      N1662   1.307       .  A
N1661     Mn1663   2.126       .  S
N1662      C1664   1.340       .  A
Mn1663     N2305   2.260   1_545  S
Mn1663    Cl1687   2.519   1_556  S
C1664      C1889   1.436       .  S
N1666      N1667   1.330       .  A
N1666      N1672   1.317       .  A
N1667      C1675   1.363       .  A
N1668      N1669   1.310       .  A
N1668     Mn1686   2.125       .  S
N1669      C1676   1.340       .  A
N1670      N1671   1.312       .  A
N1670     Mn2322   2.167   1_554  S
N1672      N1673   1.337       .  A
N1672     Mn2334   2.273   1_545  S
N1673      C1675   1.368       .  A
Mn1674     N2293   2.224   1_545  S
Mn1674     N2318   2.147   1_546  S
C1676      C1896   1.433       .  S
N1677      N1678   1.318       .  A
N1677      N1683   1.320       .  A
N1677     Mn1685   2.146       .  S
N1678      C1688   1.343       .  A
N1679      N1680   1.310       .  A
N1679      N1681   1.318       .  A
N1680      C1689   1.340       .  A
N1681      N1682   1.314       .  A
N1681     Mn2333   2.201   1_545  S
N1682      C1689   1.348       .  A
Mn1685     N1979   2.151       .  S
Mn1685     N2329   2.219       .  S
Mn1685    Cl2011   2.569       .  S
Mn1686     N2320   2.280       .  S
Cl1687    Mn2009   2.562   1_545  S
C1688      C1926   1.452       .  S
C1689      C1919   1.444       .  S
N1690      N1691   1.309       .  A
N1690      N1696   1.322       .  A
N1691      C1698   1.344       .  A
N1692      N1694   1.323       .  A
N1692      N1693   1.317       .  A
N1692     Mn1708   2.232       .  S
N1693      C1699   1.349       .  A
N1694      N1695   1.313       .  A
N1694     Mn1719   2.176       .  S
N1695      C1699   1.347       .  A
N1696      N1697   1.316       .  A
N1697      C1698   1.343       .  A
C1698      C1886   1.431       .  S
C1699      C1876   1.454       .  S
N1700      N1706   1.307       .  A
N1700      N1701   1.326       .  A
N1701      C1709   1.362       .  A
N1702      N1703   1.341       .  A
N1702      N1704   1.316       .  A
N1703      C1710   1.370       .  A
N1704      N1705   1.342       .  A
N1704     Mn1730   2.314       .  S
N1705      C1710   1.372       .  A
N1706      N1707   1.306       .  A
N1706     Mn1708   2.137       .  S
N1707      C1709   1.344       .  A
Mn1708    Cl1732   2.553       .  S
C1709      C1846   1.459       .  S
N1711      N1712   1.346       .  A
N1711      N1717   1.316       .  A
N1711     Mn1719   2.283       .  S
N1712      C1720   1.371       .  A
N1713      N1715   1.309   1_556  A
N1713      N1714   1.311       .  A
N1713     Mn1731   2.146       .  S
N1714      C1721   1.347       .  A
N1715      N1716   1.323       .  A
N1716      C1721   1.359   1_554  A
N1717      N1718   1.339       .  A
N1718      C1720   1.377       .  A
Mn1719    Cl1732   2.567       .  S
C1721      C1856   1.475       .  S
N1722      N1723   1.309       .  A
N1722      N1728   1.321       .  A
N1722     Mn1730   2.154       .  S
N1723      C1733   1.341       .  A
N1724      N1725   1.311       .  A
N1724      N1726   1.323       .  A
N1725      C1734   1.334       .  A
N1726      N1727   1.315       .  A
N1727      C1734   1.352       .  A
N1728      N1729   1.323       .  A
N1728     Mn1731   2.256       .  S
N1729      C1733   1.362       .  A
C1733      C1869   1.476       .  S
C1734      C1899   1.430       .  S
N1735      N1736   1.313       .  A
N1735      N1741   1.315       .  A
N1735     Mn1764   2.224       .  S
N1736      C1743   1.349       .  A
N1737      N1739   1.320   1_655  A
N1737     Mn1753   2.206       .  S
N1738      C1744   1.346       .  A
N1739     Mn1764   2.157   1_455  S
N1740      C1744   1.343       .  A
N1741      N1742   1.311       .  A
N1741     Mn1753   2.131       .  S
N1742      C1743   1.344       .  A
C1743      C1879   1.448       .  S
C1744      C1929   1.458       .  S
N1745      N1751   1.316       .  A
N1745      N1746   1.316       .  A
N1745     Mn1775   2.170       .  S
N1746      C1754   1.345       .  A
N1747      N1748   1.337       .  A
N1747      N1749   1.312       .  A
N1747     Mn1753   2.252       .  S
N1748      C1755   1.364       .  A
N1749      N1750   1.344       .  A
N1750      C1755   1.380       .  A
N1751      N1752   1.318       .  A
N1752      C1754   1.345       .  A
Mn1753    Cl1777   2.538   1_655  S
C1754      C1839   1.456       .  S
N1756      N1757   1.334       .  A
N1756      N1762   1.313       .  A
N1757      C1765   1.369       .  A
N1758      N1760   1.308       .  A
N1758      N1759   1.329       .  A
N1759      C1766   1.359       .  A
N1760      N1761   1.310       .  A
N1760     Mn1764   2.156       .  S
N1761      C1766   1.338       .  A
N1762      N1763   1.347       .  A
N1762     Mn1776   2.338       .  S
N1763      C1765   1.378       .  A
Mn1764    Cl1777   2.540   1_655  S
C1766      C1826   1.504       .  S
N1767      N1773   1.322       .  A
N1767     Mn1775   2.131       .  S
N1768      C1778   1.336   1_655  A
N1769      N1770   1.307       .  A
N1769      N1771   1.319       .  A
N1769     Mn1776   2.122       .  S
N1770      C1779   1.334       .  A
N1771      N1772   1.329       .  A
N1771     Mn1775   2.287       .  S
N1772      C1779   1.366       .  A
N1773     Mn1776   2.245       .  S
N1774      C1778   1.355       .  A
C1778      C1939   1.446       .  S
C1779      C1866   1.476       .  S
N1780      N1781   1.342       .  A
N1780      N1786   1.320       .  A
N1780     Mn1809   2.288       .  S
N1781      C1788   1.370       .  A
N1782      N1784   1.311   1_545  A
N1782      N1783   1.312       .  A
N1782     Mn1798   2.156       .  S
N1783      C1789   1.349       .  A
N1784      N1785   1.323       .  A
N1784     Mn2457   2.207       .  S
N1785      C1789   1.357   1_565  A
N1786      N1787   1.341       .  A
N1786     Mn2446   2.311       .  S
N1787      C1788   1.370       .  A
C1789      C1859   1.472       .  S
N1790      N1796   1.327       .  A
N1790      N1791   1.318       .  A
N1790     Mn1820   2.209       .  S
N1791      C1799   1.352       .  A
N1792      N1793   1.316       .  A
N1792      N1794   1.323       .  A
N1792     Mn2446   2.149       .  S
N1793      C1800   1.342       .  A
N1794      N1795   1.310       .  A
N1794     Mn2468   2.215       .  S
N1795      C1800   1.346       .  A
N1796      N1797   1.317       .  A
N1796     Mn1798   2.232       .  S
N1797      C1799   1.350       .  A
Mn1798     N2434   2.308   1_545  S
Mn1798     N2440   2.147       .  S
Mn1798    Cl1822   2.529       .  S
C1799      C1829   1.490       .  S
C1800      C1916   1.435       .  S
N1801      N1802   1.306       .  A
N1801      N1807   1.319       .  A
N1801     Mn2457   2.165       .  S
N1802      C1810   1.341       .  A
N1803      N1805   1.320       .  A
N1803      N1804   1.309       .  A
N1803     Mn1821   2.201       .  S
N1804      C1811   1.330       .  A
N1805      N1806   1.326       .  A
N1805     Mn1809   2.222       .  S
N1806      C1811   1.361       .  A
N1807      N1808   1.318       .  A
N1807     Mn2469   2.172       .  S
N1808      C1810   1.346       .  A
Mn1809     N2432   2.207       .  S
Mn1809     N2449   2.168       .  S
Mn1809    Cl2470   2.586       .  S
C1810      C1909   1.436       .  S
C1811      C1836   1.476       .  S
N1812      N1813   1.328       .  A
N1812      N1818   1.304       .  A
N1812     Mn2468   2.203       .  S
N1813      C1823   1.362       .  A
N1814      N1815   1.335       .  A
N1814      N1816   1.319       .  A
N1814     Mn2469   2.260   1_545  S
N1815      C1824   1.364       .  A
N1816      N1817   1.348       .  A
N1816     Mn1820   2.329       .  S
N1817      C1824   1.376       .  A
N1818      N1819   1.305       .  A
N1818     Mn1821   2.123       .  S
N1819      C1823   1.340       .  A
Mn1820     N2442   2.210       .  S
Mn1820     N2460   2.209       .  S
Mn1820    Cl1822   2.579       .  S
Mn1821     N2455   2.188       .  S
Mn1821     N2462   2.255       .  S
Mn1821    Cl2470   2.514       .  S
Cl1822    Mn2457   2.591   1_545  S
Cl1822    Mn2469   2.512   1_545  S
C1823      C1849   1.466       .  S
C1825      C1826   1.430       .  A
C1825      C1830   1.401       .  A
C1825     Br1832   1.941       .  S
C1826      C1827   1.425       .  A
C1827      C1828   1.415       .  A
C1827     Br1834   1.930       .  S
C1828      C1829   1.407       .  A
C1828     Br1833   1.927       .  S
C1829      C1830   1.403       .  A
C1830     Br1831   1.937       .  S
C1835      C1836   1.400       .  A
C1835      C1840   1.403       .  A
C1835     Br1842   1.927       .  S
C1836      C1837   1.433       .  A
C1837      C1838   1.397       .  A
C1837     Br1844   1.940       .  S
C1838      C1839   1.395       .  A
C1838     Br1843   1.938       .  S
C1839      C1840   1.410       .  A
C1840     Br1841   1.924       .  S
C1845      C1846   1.405       .  A
C1845      C1850   1.389       .  A
C1845     Br1852   1.938       .  S
C1846      C1847   1.408       .  A
C1847      C1848   1.412       .  A
C1847     Br1854   1.922       .  S
C1848      C1849   1.409       .  A
C1848     Br1853   1.925       .  S
C1849      C1850   1.410       .  A
C1850     Br1851   1.934       .  S
C1855      C1856   1.408       .  A
C1855      C1860   1.404       .  A
C1855     Br1862   1.929       .  S
C1856      C1857   1.414       .  A
C1857      C1858   1.405       .  A
C1857     Br1864   1.934       .  S
C1858      C1859   1.408       .  A
C1858     Br1863   1.932       .  S
C1859      C1860   1.412       .  A
C1860     Br1861   1.933       .  S
C1865      C1866   1.408       .  A
C1865      C1870   1.400       .  A
C1865     Br1872   1.925       .  S
C1866      C1867   1.430       .  A
C1867      C1868   1.404       .  A
C1867     Br1874   1.935       .  S
C1868      C1869   1.397       .  A
C1868     Br1873   1.932       .  S
C1869      C1870   1.411       .  A
C1870     Br1871   1.933       .  S
C1875      C1876   1.404       .  A
C1875      C1880   1.403       .  A
C1875     Br1882   1.926       .  S
C1876      C1877   1.415       .  A
C1877      C1878   1.387       .  A
C1877     Br1884   1.938       .  S
C1878      C1879   1.412       .  A
C1878     Br1883   1.951       .  S
C1879      C1880   1.408       .  A
C1880     Br1881   1.930       .  S
C1885      C1886   1.398       .  A
C1885      C1890   1.389       .  A
C1885     Br1892   1.920       .  S
C1886      C1887   1.402   1_554  A
C1887      C1888   1.393       .  A
C1887     Br1894   1.931       .  S
C1888      C1889   1.407       .  A
C1888     Br1893   1.932       .  S
C1889      C1890   1.407   1_556  A
C1895     Br1902   1.933       .  S
C1896      C1897   1.404       .  A
C1897      C1898   1.394       .  A
C1897     Br1904   1.931       .  S
C1898      C1899   1.403       .  A
C1898     Br1903   1.929       .  S
C1899      C1900   1.394       .  A
C1905      C1906   1.398       .  A
C1905      C1910   1.395       .  A
C1905     Br1912   1.926       .  S
C1906      C2555   1.412       .  A
C1907      C2554   1.412   1_545  A
C1907      C1908   1.393       .  A
C1907     Br1914   1.936       .  S
C1908      C1909   1.400   1_545  A
C1908     Br1913   1.932       .  S
C1909      C2558   1.408       .  A
C1910      C2557   1.409       .  A
C1910     Br1911   1.927       .  S
C1915      C1916   1.394       .  A
C1915      C2568   1.396       .  A
C1915     Br1922   1.922       .  S
C1916      C2565   1.397       .  A
C1917      C2564   1.398   1_565  A
C1917      C1918   1.390       .  A
C1917     Br2572   1.930       .  S
C1918      C1919   1.414   1_565  A
C1918     Br1923   1.937       .  S
C1919      C1920   1.408       .  A
C1920      C2563   1.394       .  A
C1920     Br1921   1.931       .  S
Br1924     C2565   1.932       .  S
C1925      C1926   1.400       .  A
C1925      C1930   1.400       .  A
C1925     Br1932   1.917   1_655  S
C1926      C1927   1.395       .  A
C1928      C1929   1.420       .  A
C1928     Br1933   1.934       .  S
C1930     Br1931   1.928   1_655  S
C1935      C1936   1.398       .  A
C1935     Br1942   1.926       .  S
C1937      C1938   1.397   1_455  A
C1937     Br1944   1.911   1_455  S
C1938      C1939   1.404   1_655  A
C1938     Br1943   1.924       .  S
C1939      C1940   1.413       .  A
C1945      C1946   1.532       .  S
C1945      C1951   1.566       .  S
C1945      C1949   1.570       .  S
C1945      C2079   1.598       .  S
C1946      H1953   1.087       .  S
C1946      C1947   1.365       .  D
C1947      C1948   1.586       .  S
C1947      C1989   1.527       .  S
C1948      C1952   1.596       .  S
C1948      C1950   1.587       .  S
C1948      H1954   1.110       .  S
C1949      H1955   1.085       .  S
C1949      C1950   1.391       .  D
C1950      C2034   1.569       .  S
C1951      H1956   1.085       .  S
C1951      C1952   1.384       .  D
C1952      C2112   1.571       .  S
C1957      C1958   1.544       .  S
C1957      C1963   1.532       .  S
C1957      C1961   1.555       .  S
C1957      C1999   1.573       .  S
C1958      H1965   1.086       .  S
C1958      C1959   1.371       .  D
C1959      C1960   1.628       .  S
C1959      C2044   1.586       .  S
C1960      C1964   1.624       .  S
C1960      C1962   1.601       .  S
C1960      H1966   1.109       .  S
C1961      H1967   1.086       .  S
C1961      C1962   1.386       .  D
C1962      C2148   1.575       .  S
C1963      H1968   1.087       .  S
C1963      C1964   1.370       .  D
C1964      C2089   1.569       .  S
N1969      N1970   1.317       .  A
N1969      N1975   1.318       .  A
N1970      C1977   1.353       .  A
N1971      N1972   1.317       .  A
N1971     Mn1987   2.238   1_455  S
N1973      N1974   1.318       .  A
N1973     Mn1998   2.141       .  S
N1974      C1978   1.342       .  A
N1975      N1976   1.309       .  A
N1976      C1977   1.337       .  A
C1977      C2230   1.435       .  S
C1978      C2260   1.456       .  S
N1979      N1985   1.308       .  A
N1979      N2304   1.311       .  A
N1980      N2303   1.311       .  A
N1980      C2312   1.350       .  A
N1981      N1982   1.330       .  A
N1981      N1983   1.313       .  A
N1982      C1989   1.364       .  A
N1983      N1984   1.335       .  A
N1983     Mn2333   2.246       .  S
N1984      C1989   1.362       .  A
N1985      N1986   1.310       .  A
N1985     Mn1987   2.139       .  S
N1986      C1988   1.343       .  A
Mn1987    Cl2011   2.516       .  S
C1988      N2304   1.349       .  A
C1988      C2213   1.431       .  S
N1990      N1991   1.330       .  A
N1990      N1996   1.315       .  A
N1990     Mn2322   2.251   1_554  S
N1991      C1999   1.362       .  A
N1992      N2318   1.307       .  A
N1992      N1993   1.307       .  A
N1992     Mn2010   2.122       .  S
N1993      C2000   1.341       .  A
N1994      N2316   1.307       .  A
N1994      N1995   1.312       .  A
N1995      C2324   1.351       .  A
N1996      N1997   1.337       .  A
N1997      C1999   1.369       .  A
Mn1998     N2314   2.245       .  S
C2000      N2319   1.351       .  A
C2000      C2220   1.426       .  S
N2001      N2002   1.318       .  A
N2001      N2007   1.321       .  A
N2001     Mn2009   2.161       .  S
N2002      C2012   1.346       .  A
N2003      N2004   1.309       .  A
N2003      N2005   1.320       .  A
N2004      C2013   1.338       .  A
N2005      N2006   1.317       .  A
N2006      C2013   1.352       .  A
Mn2009     N2307   2.250   1_554  S
C2012      C2250   1.457       .  S
C2013      C2243   1.450       .  S
N2014      N2015   1.311       .  A
N2014      N2020   1.322       .  A
N2014     Mn2367   2.218       .  S
N2015      C2022   1.347       .  A
N2016      N2018   1.323       .  A
N2016      N2017   1.321       .  A
N2016     Mn2032   2.247       .  S
N2017      C2023   1.355       .  A
N2018      N2019   1.314       .  A
N2018     Mn2043   2.180       .  S
N2019      C2023   1.347       .  A
N2020      N2021   1.314       .  A
N2020     Mn2356   2.135       .  S
N2021      C2022   1.338       .  A
C2022      C2210   1.429       .  S
C2023      C2200   1.461       .  S
N2024      N2030   1.307   1_556  A
N2024      N2025   1.325   1_556  A
N2024     Mn2378   2.203       .  S
N2025      C2033   1.360       .  A
N2026      N2027   1.342       .  A
N2026      N2028   1.315       .  A
N2026     Mn2356   2.299       .  S
N2027      C2034   1.373       .  A
N2028      N2029   1.340       .  A
N2028     Mn2054   2.289       .  S
N2029      C2034   1.369       .  A
N2030      N2031   1.305       .  A
N2030     Mn2032   2.135       .  S
N2031      C2033   1.344       .  A
Mn2032     N2344   2.135       .  S
Mn2032     N2350   2.300   1_554  S
Mn2032    Cl2056   2.564       .  S
C2033      C2170   1.456       .  S
N2035      N2036   1.346       .  A
N2035      N2041   1.318       .  A
N2035     Mn2043   2.286       .  S
N2036      C2044   1.371       .  A
N2037      N2039   1.309       .  A
N2037      N2038   1.310       .  A
N2037     Mn2055   2.143       .  S
N2038      C2045   1.347       .  A
N2039      N2040   1.324       .  A
N2039     Mn2367   2.213       .  S
N2040      C2045   1.360       .  A
N2041      N2042   1.341       .  A
N2041     Mn2379   2.343   1_554  S
N2042      C2044   1.379       .  A
Mn2043     N2338   2.215       .  S
Mn2043     N2363   2.212       .  S
Mn2043    Cl2056   2.559       .  S
C2045      C2180   1.477       .  S
N2046      N2047   1.309       .  A
N2046      N2052   1.321       .  A
N2046     Mn2054   2.151       .  S
N2047      C2057   1.341       .  A
N2048      N2049   1.312       .  A
N2048      N2050   1.322       .  A
N2048     Mn2379   2.131       .  S
N2049      C2058   1.338       .  A
N2050      N2051   1.309       .  A
N2050     Mn2378   2.210       .  S
N2051      C2058   1.346       .  A
N2052      N2053   1.323       .  A
N2052     Mn2055   2.257       .  S
N2053      C2057   1.362       .  A
Mn2054     N2348   2.200       .  S
Mn2054     N2374   2.209       .  S
Mn2054    Cl2380   2.551       .  S
Mn2055     N2365   2.331       .  S
Mn2055     N2372   2.128       .  S
Mn2055    Cl2380   2.560       .  S
Cl2056    Mn2378   2.552   1_554  S
Cl2056    Mn2379   2.561   1_554  S
C2057      C2193   1.476       .  S
C2058      C2223   1.422   1_556  S
N2059      N2060   1.312       .  A
N2059      N2065   1.315       .  A
N2059     Mn2088   2.240       .  S
N2060      C2067   1.349       .  A
N2061      N2063   1.319   1_655  A
N2061     Mn2077   2.219       .  S
N2062      C2068   1.352       .  A
N2063     Mn2088   2.143   1_455  S
N2064      C2068   1.340       .  A
N2065      N2066   1.317       .  A
N2065     Mn2077   2.138       .  S
N2066      C2067   1.349       .  A
C2067      C2203   1.466       .  S
C2068      C2253   1.453       .  S
N2069      N2075   1.317       .  A
N2069      N2070   1.317       .  A
N2069     Mn2099   2.175       .  S
N2070      C2078   1.345       .  A
N2071      N2072   1.336       .  A
N2071      N2073   1.314       .  A
N2071     Mn2077   2.257       .  S
N2072      C2079   1.364       .  A
N2073      N2074   1.342       .  A
N2074      C2079   1.377       .  A
N2075      N2076   1.317       .  A
N2076      C2078   1.345       .  A
Mn2077    Cl2101   2.554   1_655  S
C2078      C2163   1.458       .  S
N2080      N2081   1.334       .  A
N2080      N2086   1.312       .  A
N2081      C2089   1.369       .  A
N2082      N2084   1.309       .  A
N2082      N2083   1.328       .  A
N2083      C2090   1.358       .  A
N2084      N2085   1.308       .  A
N2084     Mn2088   2.151       .  S
N2085      C2090   1.338       .  A
N2086      N2087   1.347       .  A
N2086     Mn2100   2.336       .  S
N2087      C2089   1.378       .  A
Mn2088    Cl2101   2.532   1_655  S
C2090      C2150   1.493       .  S
N2091      N2097   1.323       .  A
N2091     Mn2099   2.144       .  S
N2092      C2102   1.338   1_655  A
N2093      N2094   1.306       .  A
N2093      N2095   1.319       .  A
N2093     Mn2100   2.119       .  S
N2094      C2103   1.334       .  A
N2095      N2096   1.328       .  A
N2095     Mn2099   2.280       .  S
N2096      C2103   1.366       .  A
N2097     Mn2100   2.251       .  S
N2098      C2102   1.355       .  A
C2102      C2263   1.455       .  S
C2103      C2190   1.474       .  S
N2104      N2105   1.342       .  A
N2104      N2110   1.319       .  A
N2104     Mn2133   2.290       .  S
N2105      C2112   1.370       .  A
N2106      N2108   1.313       .  A
N2106      N2107   1.314       .  A
N2106     Mn2122   2.166       .  S
N2107      C2113   1.350       .  A
N2108      N2109   1.321       .  A
N2109      C2113   1.355       .  A
N2110      N2111   1.342       .  A
N2111      C2112   1.370       .  A
C2113      C2183   1.471       .  S
N2114      N2120   1.328       .  A
N2114      N2115   1.316       .  A
N2114     Mn2144   2.199       .  S
N2115      C2123   1.348       .  A
N2116      N2117   1.314       .  A
N2116      N2118   1.323       .  A
N2117      C2124   1.340       .  A
N2118      N2119   1.310       .  A
N2119      C2124   1.345       .  A
N2120      N2121   1.320       .  A
N2120     Mn2122   2.248       .  S
N2121      C2123   1.353       .  A
Mn2122    Cl2146   2.538       .  S
C2123      C2153   1.486       .  S
C2124      C2240   1.428       .  S
N2125      N2126   1.307       .  A
N2125      N2131   1.320       .  A
N2126      C2134   1.340       .  A
N2127      N2129   1.322       .  A
N2127      N2128   1.310       .  A
N2127     Mn2145   2.213       .  S
N2128      C2135   1.332       .  A
N2129      N2130   1.326       .  A
N2129     Mn2133   2.227       .  S
N2130      C2135   1.361       .  A
N2131      N2132   1.320       .  A
N2132      C2134   1.349       .  A
C2134      C2233   1.442       .  S
C2135      C2160   1.478       .  S
N2136      N2137   1.329       .  A
N2136      N2142   1.304       .  A
N2137      C2147   1.363   1_545  A
N2138      N2139   1.335       .  A
N2138      N2140   1.319       .  A
N2139      C2148   1.365       .  A
N2140      N2141   1.348       .  A
N2140     Mn2144   2.327       .  S
N2141      C2148   1.376       .  A
N2142      N2143   1.303   1_545  A
N2142     Mn2145   2.115   1_545  S
N2143      C2147   1.340       .  A
Mn2144    Cl2146   2.573       .  S
C2147      C2173   1.464       .  S
C2149      C2150   1.422       .  A
C2149      C2154   1.398       .  A
C2149     Br2156   1.937       .  S
C2150      C2151   1.424       .  A
C2151      C2152   1.413       .  A
C2151     Br2158   1.928       .  S
C2152      C2153   1.404       .  A
C2152     Br2157   1.923       .  S
C2153      C2154   1.406       .  A
C2154     Br2155   1.935       .  S
C2159      C2160   1.401       .  A
C2159      C2164   1.405       .  A
C2159     Br2166   1.926       .  S
C2160      C2161   1.431       .  A
C2161      C2162   1.396       .  A
C2161     Br2168   1.940       .  S
C2162      C2163   1.395       .  A
C2162     Br2167   1.937       .  S
C2163      C2164   1.411       .  A
C2164     Br2165   1.924       .  S
C2169      C2170   1.403       .  A
C2169      C2174   1.387       .  A
C2169     Br2176   1.936       .  S
C2170      C2171   1.408       .  A
C2171      C2172   1.413       .  A
C2171     Br2178   1.923   1_554  S
C2172      C2173   1.410       .  A
C2172     Br2177   1.924   1_565  S
C2173      C2174   1.409       .  A
C2174     Br2175   1.934       .  S
C2179      C2180   1.408       .  A
C2179      C2184   1.405       .  A
C2179     Br2186   1.930       .  S
C2180      C2181   1.415       .  A
C2181      C2182   1.404       .  A
C2181     Br2188   1.934       .  S
C2182      C2183   1.408       .  A
C2182     Br2187   1.933       .  S
C2183      C2184   1.412       .  A
C2184     Br2185   1.932       .  S
C2189      C2190   1.406       .  A
C2189      C2194   1.400       .  A
C2189     Br2196   1.926       .  S
C2190      C2191   1.428       .  A
C2191      C2192   1.402       .  A
C2191     Br2198   1.936       .  S
C2192      C2193   1.398       .  A
C2192     Br2197   1.933       .  S
C2193      C2194   1.413       .  A
C2194     Br2195   1.934       .  S
C2199      C2200   1.406       .  A
C2199      C2204   1.411       .  A
C2199     Br2206   1.926       .  S
C2200      C2201   1.410       .  A
C2201      C2202   1.384       .  A
C2201     Br2208   1.930       .  S
C2202      C2203   1.408       .  A
C2202     Br2207   1.939       .  S
C2203      C2204   1.415       .  A
C2204     Br2205   1.928       .  S
C2209      C2210   1.393       .  A
C2209      C2214   1.387       .  A
C2209     Br2216   1.919       .  S
C2210      C2211   1.403       .  A
C2211      C2212   1.394       .  A
C2211     Br2218   1.928       .  S
C2212      C2213   1.403       .  A
C2212     Br2217   1.929       .  S
C2213      C2214   1.408       .  A
C2214     Br2539   1.938       .  S
Br2215     C2538   1.938       .  S
C2219      C2544   1.408       .  A
C2219      C2548   1.388       .  A
C2219     Br2226   1.934       .  S
C2220      C2543   1.409   1_554  A
C2220      C2221   1.401       .  A
C2221      C2222   1.391       .  A
C2221     Br2228   1.932       .  S
C2222      C2223   1.404       .  A
C2222     Br2227   1.929       .  S
C2223      C2224   1.394   1_554  A
C2224      C2543   1.387       .  A
C2224     Br2549   1.931       .  S
Br2225     C2548   1.931       .  S
C2229      C2230   1.396       .  A
C2229      C2234   1.390       .  A
C2229     Br2236   1.927       .  S
C2231      C2232   1.395       .  A
C2231     Br2238   1.936       .  S
C2232      C2233   1.400       .  A
C2232     Br2237   1.931       .  S
C2234     Br2235   1.931       .  S
C2239      C2240   1.395       .  A
C2239     Br2246   1.922       .  S
C2241      C2242   1.390       .  A
C2242      C2243   1.415       .  A
C2242     Br2247   1.935       .  S
C2243      C2244   1.411       .  A
C2244     Br2245   1.931       .  S
C2249      C2250   1.398   1_455  A
C2249      C2254   1.398       .  A
C2249     Br2256   1.907       .  S
C2250      C2251   1.398       .  A
C2252      C2253   1.415       .  A
C2252     Br2257   1.931       .  S
C2254     Br2255   1.927       .  S
C2259      C2260   1.394       .  A
C2259     Br2266   1.925       .  S
C2261      C2262   1.400   1_455  A
C2261     Br2268   1.906   1_455  S
C2262      C2263   1.406   1_655  A
C2262     Br2267   1.925       .  S
C2263      C2264   1.415       .  A
C2269      C2270   1.534       .  S
C2269      C2275   1.567       .  S
C2269      C2273   1.572       .  S
C2269      C2403   1.601       .  S
C2270      H2277   1.087       .  S
C2270      C2271   1.366       .  D
C2271      C2272   1.587       .  S
C2271      C2313   1.531       .  S
C2272      C2276   1.596       .  S
C2272      C2274   1.586       .  S
C2272      H2278   1.110       .  S
C2273      H2279   1.085       .  S
C2273      C2274   1.392       .  D
C2274      C2358   1.569       .  S
C2275      H2280   1.085       .  S
C2275      C2276   1.385       .  D
C2276      C2436   1.573       .  S
C2281      C2282   1.543       .  S
C2281      C2287   1.530       .  S
C2281      C2285   1.555       .  S
C2281      C2323   1.572       .  S
C2282      H2289   1.086       .  S
C2282      C2283   1.371       .  D
C2283      C2284   1.623       .  S
C2283      C2368   1.581       .  S
C2284      C2288   1.620       .  S
C2284      C2286   1.596       .  S
C2284      H2290   1.109       .  S
C2285      H2291   1.086       .  S
C2285      C2286   1.386       .  D
C2286      C2472   1.570       .  S
C2287      H2292   1.087       .  S
C2287      C2288   1.370       .  D
C2288      C2413   1.562       .  S
N2293      N2294   1.317       .  A
N2293      N2299   1.318       .  A
N2294      C2301   1.354       .  A
N2295      N2296   1.318       .  A
N2295     Mn2311   2.241   1_455  S
N2297      N2298   1.317       .  A
N2297     Mn2322   2.144       .  S
N2298      C2302   1.342       .  A
N2299      N2300   1.308       .  A
N2300      C2301   1.337       .  A
C2301      C2554   1.436       .  S
C2302      C2584   1.458       .  S
N2303      N2309   1.308       .  A
N2305      N2306   1.331       .  A
N2305      N2307   1.313       .  A
N2306      C2313   1.365       .  A
N2307      N2308   1.336       .  A
N2308      C2313   1.363       .  A
N2309      N2310   1.310       .  A
N2309     Mn2311   2.137       .  S
N2310      C2312   1.343       .  A
Mn2311    Cl2335   2.517   1_556  S
C2312      C2537   1.431       .  S
N2314      N2315   1.329       .  A
N2314      N2320   1.315       .  A
N2315      C2323   1.361       .  A
N2316      N2317   1.306       .  A
N2316     Mn2334   2.121       .  S
N2317      C2324   1.340       .  A
N2318      N2319   1.311       .  A
N2320      N2321   1.337       .  A
N2321      C2323   1.370       .  A
C2324      C2544   1.425       .  S
N2325      N2326   1.318       .  A
N2325      N2331   1.320       .  A
N2325     Mn2333   2.158       .  S
N2326      C2336   1.346       .  A
N2327      N2328   1.308       .  A
N2327      N2329   1.320       .  A
N2328      C2337   1.338       .  A
N2329      N2330   1.317       .  A
N2330      C2337   1.352       .  A
C2336      C2574   1.456       .  S
C2337      C2567   1.450       .  S
N2338      N2339   1.311       .  A
N2338      N2344   1.322       .  A
N2339      C2346   1.347       .  A
N2340      N2342   1.323       .  A
N2340      N2341   1.321       .  A
N2340     Mn2356   2.247       .  S
N2341      C2347   1.355       .  A
N2342      N2343   1.314       .  A
N2342     Mn2367   2.180       .  S
N2343      C2347   1.346       .  A
N2344      N2345   1.314       .  A
N2345      C2346   1.339       .  A
C2346      C2534   1.428   1_554  S
C2347      C2524   1.462       .  S
N2348      N2354   1.307       .  A
N2348      N2349   1.325       .  A
N2349      C2357   1.360       .  A
N2350      N2351   1.342       .  A
N2350      N2352   1.315       .  A
N2351      C2358   1.373       .  A
N2352      N2353   1.340       .  A
N2352     Mn2378   2.289       .  S
N2353      C2358   1.368       .  A
N2354      N2355   1.305       .  A
N2354     Mn2356   2.135       .  S
N2355      C2357   1.344       .  A
Mn2356    Cl2380   2.562       .  S
C2357      C2494   1.456       .  S
N2359      N2360   1.346       .  A
N2359      N2365   1.317       .  A
N2359     Mn2367   2.287       .  S
N2360      C2368   1.371       .  A
N2361      N2363   1.309   1_556  A
N2361      N2362   1.311       .  A
N2361     Mn2379   2.144       .  S
N2362      C2369   1.347       .  A
N2363      N2364   1.324       .  A
N2364      C2369   1.359   1_554  A
N2365      N2366   1.339       .  A
N2366      C2368   1.377       .  A
Mn2367    Cl2380   2.559       .  S
C2369      C2504   1.476       .  S
N2370      N2371   1.309       .  A
N2370      N2376   1.321       .  A
N2370     Mn2378   2.148       .  S
N2371      C2381   1.340       .  A
N2372      N2373   1.313       .  A
N2372      N2374   1.321       .  A
N2373      C2382   1.338       .  A
N2374      N2375   1.309       .  A
N2375      C2382   1.346       .  A
N2376      N2377   1.323       .  A
N2376     Mn2379   2.264       .  S
N2377      C2381   1.363       .  A
C2381      C2517   1.476       .  S
C2382      C2547   1.422       .  S
N2383      N2384   1.313       .  A
N2383      N2389   1.315       .  A
N2383     Mn2412   2.239       .  S
N2384      C2391   1.350       .  A
N2385      N2387   1.318   1_655  A
N2385     Mn2401   2.221       .  S
N2386      C2392   1.352       .  A
N2387     Mn2412   2.147   1_455  S
N2388      C2392   1.341       .  A
N2389      N2390   1.315       .  A
N2389     Mn2401   2.139       .  S
N2390      C2391   1.348       .  A
C2391      C2527   1.463       .  S
C2392      C2577   1.456       .  S
N2393      N2399   1.317       .  A
N2393      N2394   1.316       .  A
N2393     Mn2423   2.176       .  S
N2394      C2402   1.345       .  A
N2395      N2396   1.337       .  A
N2395      N2397   1.314       .  A
N2395     Mn2401   2.260       .  S
N2396      C2403   1.365       .  A
N2397      N2398   1.343       .  A
N2398      C2403   1.377       .  A
N2399      N2400   1.317       .  A
N2400      C2402   1.344       .  A
Mn2401    Cl2425   2.553   1_655  S
C2402      C2487   1.456       .  S
N2404      N2405   1.333       .  A
N2404      N2410   1.312       .  A
N2405      C2413   1.367       .  A
N2406      N2408   1.308       .  A
N2406      N2407   1.327       .  A
N2407      C2414   1.358       .  A
N2408      N2409   1.307       .  A
N2408     Mn2412   2.148       .  S
N2409      C2414   1.337       .  A
N2410      N2411   1.345       .  A
N2410     Mn2424   2.331       .  S
N2411      C2413   1.377       .  A
Mn2412    Cl2425   2.534   1_655  S
C2414      C2474   1.494       .  S
N2415      N2421   1.323       .  A
N2415     Mn2423   2.144       .  S
N2416      C2426   1.338   1_655  A
N2417      N2418   1.307       .  A
N2417      N2419   1.319       .  A
N2417     Mn2424   2.119       .  S
N2418      C2427   1.334       .  A
N2419      N2420   1.329       .  A
N2419     Mn2423   2.286       .  S
N2420      C2427   1.367       .  A
N2421     Mn2424   2.249       .  S
N2422      C2426   1.355       .  A
C2426      C2587   1.452       .  S
C2427      C2514   1.477       .  S
N2428      N2429   1.343       .  A
N2428      N2434   1.320       .  A
N2428     Mn2457   2.296       .  S
N2429      C2436   1.372       .  A
N2430      N2432   1.313       .  A
N2430      N2431   1.314       .  A
N2430     Mn2446   2.166       .  S
N2431      C2437   1.350       .  A
N2432      N2433   1.321       .  A
N2433      C2437   1.355       .  A
N2434      N2435   1.341       .  A
N2435      C2436   1.369       .  A
C2437      C2507   1.472       .  S
N2438      N2444   1.328       .  A
N2438      N2439   1.317       .  A
N2438     Mn2468   2.201       .  S
N2439      C2447   1.348       .  A
N2440      N2441   1.315       .  A
N2440      N2442   1.323       .  A
N2441      C2448   1.341       .  A
N2442      N2443   1.310       .  A
N2443      C2448   1.345       .  A
N2444      N2445   1.320       .  A
N2444     Mn2446   2.247       .  S
N2445      C2447   1.352       .  A
Mn2446    Cl2470   2.536       .  S
C2447      C2477   1.487       .  S
C2448      C2564   1.430       .  S
N2449      N2450   1.308       .  A
N2449      N2455   1.320       .  A
N2450      C2458   1.341       .  A
N2451      N2453   1.321       .  A
N2451      N2452   1.310       .  A
N2451     Mn2469   2.213       .  S
N2452      C2459   1.331       .  A
N2453      N2454   1.326       .  A
N2453     Mn2457   2.228       .  S
N2454      C2459   1.362       .  A
N2455      N2456   1.320       .  A
N2456      C2458   1.348       .  A
C2458      C2557   1.442       .  S
C2459      C2484   1.478       .  S
N2460      N2461   1.328       .  A
N2460      N2466   1.304       .  A
N2461      C2471   1.363   1_545  A
N2462      N2463   1.334       .  A
N2462      N2464   1.319       .  A
N2463      C2472   1.363       .  A
N2464      N2465   1.348       .  A
N2464     Mn2468   2.325       .  S
N2465      C2472   1.376       .  A
N2466      N2467   1.303   1_545  A
N2466     Mn2469   2.113   1_545  S
N2467      C2471   1.340       .  A
Mn2468    Cl2470   2.573       .  S
C2471      C2497   1.462       .  S
C2473      C2474   1.424       .  A
C2473      C2478   1.399       .  A
C2473     Br2480   1.940       .  S
C2474      C2475   1.424       .  A
C2475      C2476   1.412       .  A
C2475     Br2482   1.929       .  S
C2476      C2477   1.404       .  A
C2476     Br2481   1.924       .  S
C2477      C2478   1.407       .  A
C2478     Br2479   1.937       .  S
C2483      C2484   1.401       .  A
C2483      C2488   1.404       .  A
C2483     Br2490   1.926       .  S
C2484      C2485   1.433       .  A
C2485      C2486   1.397       .  A
C2485     Br2492   1.941       .  S
C2486      C2487   1.394       .  A
C2486     Br2491   1.937       .  S
C2487      C2488   1.410       .  A
C2488     Br2489   1.925       .  S
C2493      C2494   1.404       .  A
C2493      C2498   1.387       .  A
C2493     Br2500   1.937       .  S
C2494      C2495   1.407       .  A
C2495      C2496   1.412       .  A
C2495     Br2502   1.924       .  S
C2496      C2497   1.409       .  A
C2496     Br2501   1.924   1_565  S
C2497      C2498   1.409       .  A
C2498     Br2499   1.935       .  S
C2503      C2504   1.408       .  A
C2503      C2508   1.405       .  A
C2503     Br2510   1.930       .  S
C2504      C2505   1.414       .  A
C2505      C2506   1.404       .  A
C2505     Br2512   1.934       .  S
C2506      C2507   1.408       .  A
C2506     Br2511   1.933       .  S
C2507      C2508   1.412       .  A
C2508     Br2509   1.932       .  S
C2513      C2514   1.407       .  A
C2513      C2518   1.401       .  A
C2513     Br2520   1.926       .  S
C2514      C2515   1.429       .  A
C2515      C2516   1.403       .  A
C2515     Br2522   1.935       .  S
C2516      C2517   1.396       .  A
C2516     Br2521   1.932       .  S
C2517      C2518   1.413       .  A
C2518     Br2519   1.933       .  S
C2523      C2524   1.407       .  A
C2523      C2528   1.410       .  A
C2523     Br2530   1.926       .  S
C2524      C2525   1.412       .  A
C2525      C2526   1.387       .  A
C2525     Br2532   1.934       .  S
C2526      C2527   1.410       .  A
C2526     Br2531   1.941       .  S
C2527      C2528   1.413       .  A
C2528     Br2529   1.929       .  S
C2533      C2534   1.393   1_554  A
C2533      C2538   1.388       .  A
C2533     Br2540   1.922       .  S
C2534      C2535   1.403       .  A
C2535      C2536   1.394       .  A
C2535     Br2542   1.929       .  S
C2536      C2537   1.403       .  A
C2536     Br2541   1.929       .  S
C2537      C2538   1.408   1_556  A
C2543     Br2550   1.935       .  S
C2544      C2545   1.401       .  A
C2545      C2546   1.391       .  A
C2545     Br2552   1.932       .  S
C2546      C2547   1.403       .  A
C2546     Br2551   1.928       .  S
C2547      C2548   1.394       .  A
C2553      C2554   1.396       .  A
C2553      C2558   1.391       .  A
C2553     Br2560   1.926       .  S
C2555      C2556   1.395       .  A
C2555     Br2562   1.936       .  S
C2556      C2557   1.401       .  A
C2556     Br2561   1.932       .  S
C2558     Br2559   1.932       .  S
C2563      C2564   1.396       .  A
C2563     Br2570   1.923       .  S
C2565      C2566   1.391       .  A
C2566      C2567   1.416       .  A
C2566     Br2571   1.935       .  S
C2567      C2568   1.412       .  A
C2568     Br2569   1.932       .  S
C2573      C2574   1.398       .  A
C2573      C2578   1.399   1_655  A
C2573     Br2580   1.911   1_655  S
C2574      C2575   1.398       .  A
C2576      C2577   1.416       .  A
C2576     Br2581   1.931       .  S
C2578     Br2579   1.927       .  S
C2583      C2584   1.394       .  A
C2583     Br2590   1.923       .  S
C2585      C2586   1.399   1_455  A
C2585     Br2592   1.904   1_455  S
C2586      C2587   1.407   1_655  A
C2586     Br2591   1.925       .  S
C2587      C2588   1.415       .  A
