geometry optimzed in LAMMPS
_audit_creation_date              2020-11-30 
_audit_creation_method            'lammps2cif' 
_symmetry_space_group_name_H-M    'P1' 
_symmetry_Int_Tables_number       1 
_symmetry_cell_setting            triclinic 
loop_ 
_symmetry_equiv_pos_as_xyz 
  x,y,z 
_cell_length_a                    42.12432387386155 
_cell_length_b                    42.12257165946536 
_cell_length_c                    44.181973887130674 
_cell_angle_alpha                 90.53529730124954 
_cell_angle_beta                  90.49332756059192 
_cell_angle_gamma                 89.96048812446153 
loop_ 
_atom_site_label 
_atom_site_type_symbol 
_atom_site_fract_x 
_atom_site_fract_y 
_atom_site_fract_z 
_atom_site_charge 
N1          N  0.68100737  0.43240942  0.25075232    -0.27200
N2          N  0.65672863  0.45206896  0.25047267    -0.35060
C3          C  0.62962203  0.43589633  0.25005919     0.01140
C4          C  0.63649388  0.40391076  0.25011582     0.07160
C5          C  0.66959691  0.40227413  0.25053947    -0.05940
H6          H  0.60650906  0.44704769  0.24973522     0.07830
H7          H  0.68407224  0.38105471  0.25071567     0.09030
Cu8        Cu  0.66015244  0.50013153  0.25065282     0.44170
Cu9        Cu  0.72605229  0.45318114  0.25117863     0.41990
Cu10       Cu  0.72529774  0.54702556  0.24703113     0.43880
N11         N  0.65623220  0.54815764  0.25014411    -0.34590
N12         N  0.68036140  0.56783904  0.24847161    -0.28840
C13         C  0.66885563  0.59793816  0.24814681    -0.04940
C14         C  0.63582141  0.59626622  0.24968878     0.07270
C15         C  0.62909278  0.56428637  0.25094797     0.01070
H16         H  0.68321419  0.61914667  0.24676272     0.08720
H17         H  0.60605800  0.55311241  0.25217499     0.07800
N18         N  0.76427470  0.51611585  0.24827195    -0.36040
N19         N  0.76463232  0.48465020  0.25031179    -0.28220
C20         C  0.79500710  0.47484435  0.25132184    -0.03460
C21         C  0.81485301  0.50101519  0.24982614     0.05150
C22         C  0.79435842  0.52666483  0.24770373     0.03250
H23         H  0.80200946  0.45023651  0.25322949     0.08350
H24         H  0.80045814  0.55140308  0.24536114     0.07180
N25         N  0.44694868  0.66506033  0.25130776    -0.27200
N26         N  0.46665918  0.64085857  0.25018321    -0.35060
C27         C  0.45054243  0.61371872  0.24941708     0.01140
C28         C  0.41854377  0.62052170  0.25012368     0.07160
C29         C  0.41684465  0.65360007  0.25130121    -0.05940
H30         H  0.46173314  0.59063827  0.24849936     0.07830
H31         H  0.39561111  0.66802464  0.25216586     0.09030
Cu32       Cu  0.51469918  0.64466374  0.25001387     0.44170
Cu33       Cu  0.46769831  0.71003132  0.25247388     0.41990
Cu34       Cu  0.56152021  0.71046226  0.24810503     0.43880
N35         N  0.56276710  0.64120953  0.24975162    -0.34590
N36         N  0.58236536  0.66547245  0.24878056    -0.28840
C37         C  0.61251752  0.65409067  0.24861442    -0.04940
C38         C  0.61096649  0.62101676  0.24957323     0.07270
C39         C  0.57900594  0.61412953  0.25028457     0.01070
H40         H  0.63369037  0.66856804  0.24786905     0.08720
H41         H  0.56791615  0.59102350  0.25101183     0.07800
N42         N  0.53012487  0.74910899  0.24923445    -0.36040
N43         N  0.49866571  0.74890542  0.25134919    -0.28220
C44         C  0.48821091  0.77904730  0.25209894    -0.03460
C45         C  0.51392658  0.79939522  0.25001613     0.05150
C46         C  0.54002451  0.77941918  0.24835904     0.03250
H47         H  0.46349699  0.78529479  0.25451641     0.08350
H48         H  0.56464858  0.78628101  0.24641055     0.07180
N49         N  0.44780279  0.33403638  0.25079985    -0.27200
N50         N  0.46740311  0.35832137  0.25019271    -0.35060
C51         C  0.45115656  0.38540081  0.24985469     0.01140
C52         C  0.41919091  0.37850140  0.25029952     0.07160
C53         C  0.41764345  0.34541187  0.25090661    -0.05940
H54         H  0.46224752  0.40851674  0.24938711     0.07830
H55         H  0.39646704  0.33091919  0.25135754     0.09030
Cu56       Cu  0.51549704  0.35497099  0.25000274     0.44170
Cu57       Cu  0.46862376  0.28901240  0.25116789     0.41990
Cu58       Cu  0.56250315  0.28965552  0.24803804     0.43880
N59         N  0.56355621  0.35882360  0.24984158    -0.34590
N60         N  0.58326077  0.33460749  0.24896041    -0.28840
C61         C  0.61337464  0.34603887  0.24899981    -0.04940
C62         C  0.61170189  0.37912155  0.24993428     0.07270
C63         C  0.57969649  0.38595617  0.25046577     0.01070
H64         H  0.63459909  0.33158870  0.24833718     0.08720
H65         H  0.56852346  0.40905098  0.25122004     0.07800
N66         N  0.53163230  0.25072203  0.24899051    -0.36040
N67         N  0.50011458  0.25041242  0.25042945    -0.28220
C68         C  0.49029805  0.22005653  0.25112602    -0.03460
C69         C  0.51652766  0.20024526  0.25016665     0.05150
C70         C  0.54221899  0.22062079  0.24862337     0.03250
H71         H  0.46567133  0.21300600  0.25250296     0.08350
H72         H  0.56699611  0.21432615  0.24679102     0.07180
N73         N  0.34978524  0.43169663  0.25092609    -0.27200
N74         N  0.37394968  0.45138902  0.24975495    -0.35060
C75         C  0.40109423  0.43525417  0.24925419     0.01140
C76         C  0.39433779  0.40326204  0.25017486     0.07160
C77         C  0.36127648  0.40158908  0.25121522    -0.05940
H78         H  0.42414984  0.44643250  0.24839951     0.07830
H79         H  0.34688495  0.38037138  0.25219273     0.09030
Cu80       Cu  0.37011404  0.49944351  0.24931625     0.44170
Cu81       Cu  0.30481617  0.45247389  0.25182808     0.41990
Cu82       Cu  0.30431752  0.54643999  0.24980770     0.43880
N83         N  0.37359021  0.54752520  0.24956904    -0.34590
N84         N  0.34931427  0.56718616  0.24977178    -0.28840
C85         C  0.36069746  0.59732531  0.25001481    -0.04940
C86         C  0.39379072  0.59570266  0.24995223     0.07270
C87         C  0.40068723  0.56371416  0.24968342     0.01070
H88         H  0.34620770  0.61853608  0.25022271     0.08720
H89         H  0.42380717  0.55257603  0.24963789     0.07800
N90         N  0.26570581  0.51506660  0.25005217    -0.36040
N91         N  0.26593367  0.48351192  0.25091868    -0.28220
C92         C  0.23579234  0.47306690  0.25087550    -0.03460
C93         C  0.21553158  0.49890489  0.24974068     0.05150
C94         C  0.23538319  0.52505387  0.24940614     0.03250
H95         H  0.22934760  0.44829482  0.25218317     0.08350
H96         H  0.22836256  0.54973557  0.24848493     0.07180
O97         O  0.98773880  0.54784041  0.50016246    -0.72860
O98         O  0.98745174  0.45236170  0.49851650    -0.73840
O99         O  0.98728204  0.49953343  0.04501377    -0.62100
O100        O  0.98777592  0.50055848  0.45431354    -0.70870
O101        O  0.04036075  0.49954453  0.45499499    -0.70420
O102        O  0.03990844  0.50038865  0.04589517    -0.61670
O103        O  0.04011372  0.45233524  0.50068843    -0.74180
O104        O  0.04042030  0.54753633  0.50086859    -0.72960
Cu105      Cu  0.98572318  0.50008517  0.49951053     1.04560
Cu106      Cu  0.04202826  0.49993932  0.50059817     1.04330
C107        C  0.01417469  0.56273797  0.50068967     0.93340
C108        C  0.01379257  0.43731521  0.49947216     0.92480
C109        C  0.01347176  0.49987211  0.05984472     0.84630
C110        C  0.01411068  0.50014069  0.44022569     0.90900
O111        O  0.96801318  0.47312337  0.25048584    -0.72860
O112        O  0.06312370  0.47392709  0.24886447    -0.73840
O113        O  0.01706511  0.47356218  0.29518813    -0.62460
O114        O  0.01406542  0.47339737  0.20438175    -0.70870
O115        O  0.01626100  0.52610490  0.20489309    -0.70420
O116        O  0.01426358  0.52625326  0.29562337    -0.61670
O117        O  0.06279220  0.52651645  0.25151452    -0.74180
O118        O  0.96766676  0.52570542  0.24924194    -0.72960
Cu119      Cu  0.01559418  0.47165067  0.24972992     1.04560
Cu120      Cu  0.01522815  0.52799184  0.25031751     1.04330
C121        C  0.95271982  0.49931324  0.24978528     0.93340
C122        C  0.07804388  0.50031942  0.25028012     0.92480
C123        C  0.01573013  0.49992516  0.30963308     0.84630
C124        C  0.01508825  0.49975450  0.19039360     0.90900
O125        O  0.56343143  0.02620534  0.49998878    -0.72860
O126        O  0.46810841  0.02677772  0.50083957    -0.73840
O127        O  0.51649654  0.02656194  0.04549145    -0.62460
O128        O  0.51488576  0.02641275  0.45474223    -0.70870
O129        O  0.51627364  0.97376058  0.45426931    -0.70420
O130        O  0.51513489  0.97401026  0.04511349    -0.61670
O131        O  0.46792311  0.97409957  0.49857540    -0.74180
O132        O  0.56325706  0.97356078  0.50017092    -0.72960
Cu133      Cu  0.51574205  0.02831771  0.50025038     1.04560
Cu134      Cu  0.51561567  0.97201807  0.49955461     1.04330
C135        C  0.57843339  0.99980938  0.50000112     0.93340
C136        C  0.45300457  0.00050172  0.49972940     0.92480
C137        C  0.51585615  0.00034904  0.05975676     0.84630
C138        C  0.51574157  0.00007791  0.44015025     0.90900
O139        O  0.54247908  0.95239206  0.24963619    -0.72860
O140        O  0.54176932  0.04760060  0.25103110    -0.73840
O141        O  0.54223452  0.99942951  0.29563445    -0.62460
O142        O  0.54221102  0.00043449  0.20487726    -0.70870
O143        O  0.48949255  0.99821849  0.20434343    -0.70420
O144        O  0.48953938  0.00155389  0.29513563    -0.61670
O145        O  0.48919060  0.04732585  0.24866585    -0.74180
O146        O  0.48988944  0.95229092  0.25060039    -0.72960
Cu147      Cu  0.54402480  0.99998364  0.25029996     1.04560
Cu148      Cu  0.48768692  0.99981905  0.24968751     1.04330
C149        C  0.51623830  0.93722479  0.25017259     0.93340
C150        C  0.51538047  0.06257009  0.24975025     0.92480
C151        C  0.51587916  0.00069538  0.30965253     0.84630
C152        C  0.51587683  0.99919362  0.19039408     0.90900
N153        N  0.08401354  0.83414681  0.50048828    -0.27200
N154        N  0.06435987  0.85844008  0.50001380    -0.35060
C155        C  0.08056343  0.88554270  0.49971331     0.01140
C156        C  0.11257799  0.87871548  0.50000650     0.07160
C157        C  0.11416656  0.84558589  0.50047609    -0.05940
H158        H  0.06940757  0.90864817  0.49930866     0.07830
H159        H  0.13538463  0.83111123  0.50084073     0.09030
Cu160      Cu  0.01619191  0.85511942  0.49987663     0.44170
Cu161      Cu  0.06321211  0.78895185  0.50101487     0.41990
Cu162      Cu  0.96929653  0.78960260  0.49928997     0.43880
N163        N  0.96804708  0.85888165  0.49991978    -0.34590
N164        N  0.94840456  0.83461614  0.49970929    -0.28840
C165        C  0.91824570  0.84601301  0.99978525    -0.04940
C166        C  0.91980050  0.87912329  0.00004562     0.07270
C167        C  0.95181093  0.88599512  0.50012692     0.01070
H168        H  0.89705674  0.83151825  0.99962954     0.08720
H169        H  0.96292078  0.90911567  0.50029711     0.07800
N170        N  0.00018415  0.75050567  0.49915359    -0.36040
N171        N  0.03176718  0.75012935  0.50031245    -0.28220
C172        C  0.04157928  0.71969276  0.50050822    -0.03460
C173        C  0.01529911  0.70003733  0.49901951     0.05150
C174        C  0.98957592  0.72040128  0.49829868     0.03250
H175        H  0.06620218  0.71240350  0.50133268     0.08350
H176        H  0.96474032  0.71392136  0.49787757     0.07180
N177        N  0.18169407  0.06790558  0.50106967    -0.27200
N178        N  0.15742184  0.04827096  0.49999426    -0.35060
C179        C  0.13032650  0.06452699  0.49938747     0.01140
C180        C  0.13719428  0.09653449  0.50013774     0.07160
C181        C  0.17029737  0.09807196  0.50118335    -0.05940
H182        H  0.10720977  0.05342423  0.49857716     0.07830
H183        H  0.18478743  0.11925740  0.50204112     0.09030
Cu184      Cu  0.16094704  0.00008446  0.49974072     0.44170
Cu185      Cu  0.22678936  0.04712509  0.50205463     0.41990
Cu186      Cu  0.22687992  0.95326461  0.49822275     0.43880
N187        N  0.15752151  0.95189748  0.49979546    -0.34590
N188        N  0.18184266  0.93229306  0.49917280    -0.28840
C189        C  0.17050114  0.90210963  0.49927009    -0.04940
C190        C  0.13738268  0.90361098  0.49995727     0.07270
C191        C  0.13046500  0.93562111  0.50029515     0.01070
H192        H  0.18503273  0.88093223  0.49876118     0.08720
H193        H  0.10733286  0.94671495  0.50080259     0.07800
N194        N  0.26577003  0.98452645  0.49836026    -0.36040
N195        N  0.26576128  0.01606473  0.50065011    -0.28220
C196        C  0.29602085  0.02631718  0.50107419    -0.03460
C197        C  0.31595648  0.00042010  0.49843261     0.05150
C198        C  0.29602899  0.97440616  0.49681265     0.03250
H199        H  0.30298664  0.05099418  0.50274796     0.08350
H200        H  0.30299116  0.94972412  0.49529517     0.07180
N201        N  0.08384098  0.16601027  0.50067060    -0.27200
N202        N  0.06419285  0.14174375  0.50006673    -0.35060
C203        C  0.08038341  0.11461337  0.49971610     0.01140
C204        C  0.11238792  0.12142199  0.50014385     0.07160
C205        C  0.11398992  0.15454844  0.50074603    -0.05940
H206        H  0.06923043  0.09151386  0.49929539     0.07830
H207        H  0.13520558  0.16900365  0.50123869     0.09030
Cu208      Cu  0.01608617  0.14528703  0.49999425     0.44170
Cu209      Cu  0.06292127  0.21111867  0.50128223     0.41990
Cu210      Cu  0.96898604  0.21088041  0.49821478     0.43880
N211        N  0.96799178  0.14158811  0.49980522    -0.34590
N212        N  0.94828339  0.16581046  0.49898511    -0.28840
C213        C  0.91816478  0.15435403  0.49890606    -0.04940
C214        C  0.91983470  0.12126746  0.49971245     0.07270
C215        C  0.95184990  0.11445971  0.50027817     0.01070
H216        H  0.89692691  0.16878986  0.49826322     0.08720
H217        H  0.96303118  0.09137175  0.50090109     0.07800
N218        N  0.99999944  0.24985969  0.49914864    -0.36040
N219        N  0.03156124  0.24997034  0.50094920    -0.28220
C220        C  0.04161274  0.28028493  0.50200391    -0.03460
C221        C  0.01551272  0.30015731  0.50065565     0.05150
C222        C  0.98965165  0.28008301  0.49865640     0.03250
H223        H  0.06630121  0.28727432  0.50303890     0.08350
H224        H  0.96492277  0.28693822  0.49736385     0.07180
N225        N  0.85029624  0.93241611  0.00011738    -0.27200
N226        N  0.87454766  0.95208742  0.00025841    -0.35060
C227        C  0.90169157  0.93591959  0.00026449     0.01140
C228        C  0.89490757  0.90391325  0.00013434     0.07160
C229        C  0.86178659  0.90227945  0.00004578    -0.05940
H230        H  0.92478196  0.94708889  0.00032852     0.07830
H231        H  0.84735184  0.88104928  0.99990996     0.09030
Cu232      Cu  0.87103318  0.00019262  0.00033753     0.44170
Cu233      Cu  0.80512511  0.95320429  0.99996785     0.41990
Cu234      Cu  0.80546806  0.04712988  0.99907364     0.43880
N235        N  0.87475823  0.04827620  0.00004737    -0.34590
N236        N  0.85050251  0.06794988  0.99942745    -0.28840
C237        C  0.86192879  0.09807718  0.99922957    -0.04940
C238        C  0.89503602  0.09644646  0.49976931     0.07270
C239        C  0.90188480  0.06444473  0.50028179     0.01070
H240        H  0.84746033  0.11929368  0.49872207     0.08720
H241        H  0.92499505  0.05329072  0.50072332     0.07800
N242        N  0.76648000  0.01615045  0.99972186    -0.36040
N243        N  0.76627410  0.98456827  0.99997204    -0.28220
C244        C  0.73592460  0.97461738  0.00034693    -0.03460
C245        C  0.71604859  0.00080687  0.00055888     0.05150
C246        C  0.73631742  0.02663362  0.99999395     0.03250
H247        H  0.72887956  0.94993423  0.00075031     0.08350
H248        H  0.72980999  0.05143811  0.99921480     0.07180
C249        C  0.61357680  0.99977051  0.50001128    -0.05380
C250        C  0.63010809  0.02519650  0.01350175    -0.32810
C251        C  0.66336288  0.02586625  0.01399460     0.36440
C252        C  0.68078901  0.00086419  0.00062303    -0.05740
C253        C  0.66419007  0.97542382  0.48712164    -0.32710
C254        C  0.63094179  0.97468037  0.48681341     0.36350
H255        H  0.61720565  0.04445434  0.02421977     0.16720
O256        O  0.67849247  0.05023297  0.02901828    -0.60200
H257        H  0.67698905  0.95616249  0.47632837     0.16730
O258        O  0.61569522  0.94999980  0.47237087    -0.60300
H259        H  0.61561242  0.93247182  0.48720086     0.43730
H260        H  0.67581808  0.06904146  0.01589366     0.43680
C261        C  0.41801694  0.00062168  0.49958678    -0.05380
C262        C  0.40143514  0.98092397  0.47916179    -0.32810
C263        C  0.36817744  0.98083429  0.47837240     0.36440
C264        C  0.35104331  0.00052035  0.49835434    -0.05740
C265        C  0.36767099  0.02037260  0.01866347    -0.32710
C266        C  0.40091677  0.02035975  0.01952104     0.36350
H267        H  0.41431951  0.96599358  0.46337372     0.16720
O268        O  0.35266174  0.96278590  0.45689708    -0.60200
H269        H  0.35483950  0.03546533  0.03434408     0.16730
O270        O  0.41647141  0.03919487  0.04034485    -0.60300
H271        H  0.41808853  0.02617404  0.05888933     0.43730
H272        H  0.35407127  0.94064250  0.46421137     0.43680
C273        C  0.51604347  0.00009688  0.40671081    -0.05380
C274        C  0.50009211  0.02422923  0.39095612    -0.32810
C275        C  0.49950293  0.02441051  0.35926458     0.36440
C276        C  0.51589837  0.00086502  0.34291716    -0.05740
C277        C  0.53248186  0.97718735  0.35854626    -0.32710
C278        C  0.53218782  0.97632866  0.39020944     0.36350
H279        H  0.48763326  0.04274092  0.40323256     0.16720
O280        O  0.48397212  0.04840640  0.34445911    -0.60200
H281        H  0.54526570  0.95899315  0.34613262     0.16730
O282        O  0.54877062  0.95288763  0.40480432    -0.60300
H283        H  0.53448596  0.93417650  0.40449453     0.43730
H284        H  0.46139350  0.04178462  0.34362303     0.43680
C285        C  0.51592464  0.99926328  0.15723570    -0.05380
C286        C  0.52220796  0.02753553  0.14208383    -0.32810
C287        C  0.52187975  0.02842571  0.11042719     0.36440
C288        C  0.51588119  0.00041896  0.09338519    -0.05740
C289        C  0.50978644  0.97204345  0.10889682    -0.32710
C290        C  0.50966449  0.97140562  0.14057441     0.36350
H291        H  0.52704994  0.04910464  0.15487437     0.16720
O292        O  0.52810145  0.05669192  0.09651475    -0.60200
H293        H  0.50493945  0.95025461  0.09649249     0.16730
O294        O  0.50341780  0.94346898  0.15507465    -0.60300
H295        H  0.52437987  0.93308198  0.15774689     0.43730
H296        H  0.50743702  0.06797726  0.09575945     0.43680
C297        C  0.01517242  0.33528206  0.50061446    -0.05380
C298        C  0.99351149  0.35134996  0.48187344    -0.32810
C299        C  0.99279104  0.38459392  0.48125793     0.36440
C300        C  0.01395928  0.40228745  0.49956392    -0.05740
C301        C  0.03555367  0.38625903  0.01834330    -0.32710
C302        C  0.03621656  0.35302720  0.01904971     0.36350
H303        H  0.97742646  0.33808902  0.46726641     0.16720
O304        O  0.97243535  0.39953716  0.46160802    -0.60200
H305        H  0.05161901  0.39956554  0.03294431     0.16730
O306        O  0.05629437  0.33816887  0.03901631    -0.60300
H307        H  0.07773709  0.34003290  0.03011722     0.43730
H308        H  0.95165341  0.39994873  0.47197453     0.43680
C309        C  0.01441939  0.59780221  0.50070627    -0.05380
C310        C  0.99190357  0.61425255  0.48330277    -0.32810
C311        C  0.99203785  0.64749791  0.48234847     0.36440
C312        C  0.01483159  0.66486582  0.49918635    -0.05740
C313        C  0.03734663  0.64835495  0.01660534    -0.32710
C314        C  0.03728637  0.61511422  0.01743132     0.36350
H315        H  0.97453252  0.60126475  0.46985959     0.16720
O316        O  0.97094395  0.66268006  0.46358800    -0.60200
H317        H  0.05477391  0.66126612  0.03003303     0.16730
O318        O  0.05873845  0.59982342  0.03573889    -0.60300
H319        H  0.07867520  0.59893635  0.02398902     0.43730
H320        H  0.95007656  0.66105364  0.47367958     0.43680
C321        C  0.01555948  0.50000519  0.34281362    -0.05380
C322        C  0.98819769  0.50969698  0.35805979    -0.32810
C323        C  0.98717900  0.50947236  0.38970966     0.36440
C324        C  0.01424138  0.50024806  0.40664392    -0.05740
C325        C  0.04180247  0.49096858  0.39109745    -0.32710
C326        C  0.04249114  0.49063851  0.35941729     0.36350
H327        H  0.96738554  0.51707107  0.34534502     0.16720
O328        O  0.95987706  0.51914257  0.40376967    -0.60200
H329        H  0.06283857  0.48368849  0.40349138     0.16730
O330        O  0.06963873  0.48134198  0.34486597    -0.60300
H331        H  0.08196906  0.50113213  0.34204388     0.43730
H332        H  0.94594310  0.50016670  0.40373337     0.43680
C333        C  0.01480443  0.49975721  0.15717636    -0.05380
C334        C  0.98897577  0.48653888  0.14138308    -0.32810
C335        C  0.98786550  0.48693700  0.10969734     0.36440
C336        C  0.01340486  0.49980395  0.09335650    -0.05740
C337        C  0.03948133  0.51257858  0.10938610    -0.32710
C338        C  0.04015927  0.51283905  0.14105658     0.36350
H339        H  0.96938478  0.47630738  0.15368531     0.16720
O340        O  0.96222942  0.47371747  0.09497819    -0.60200
H341        H  0.05931335  0.52267315  0.09734780     0.16730
O342        O  0.06585359  0.52559269  0.15607291    -0.60300
H343        H  0.08085494  0.50766267  0.15879296     0.43730
H344        H  0.94574130  0.49054056  0.09494666     0.43680
C345        C  0.18031715  0.49895719  0.24966153    -0.05380
C346        C  0.16403635  0.52515339  0.26189682    -0.32810
C347        C  0.13082808  0.52607094  0.26215668     0.36440
C348        C  0.11317062  0.50035670  0.25023234    -0.05740
C349        C  0.12941219  0.47421772  0.23792775    -0.32710
C350        C  0.16261772  0.47336902  0.23748894     0.36350
H351        H  0.17704696  0.54492660  0.27173154     0.16720
O352        O  0.11596700  0.55168703  0.27519559    -0.60200
H353        H  0.11633058  0.45444902  0.22813180     0.16730
O354        O  0.17738680  0.44815044  0.22368429    -0.60300
H355        H  0.17486195  0.43009678  0.23771770     0.43730
H356        H  0.11550083  0.56817969  0.25932198     0.43680
C357        C  0.51531207  0.09774343  0.24973210    -0.05380
C358        C  0.54219767  0.11423918  0.26032312    -0.32810
C359        C  0.54302314  0.14745995  0.26070297     0.36440
C360        C  0.51663524  0.16497778  0.25017808    -0.05740
C361        C  0.48971956  0.14843215  0.23961158    -0.32710
C362        C  0.48881900  0.11521900  0.23946150     0.36350
H363        H  0.56263258  0.10136359  0.26883157     0.16720
O364        O  0.56913982  0.16241338  0.27286600    -0.60200
H365        H  0.46927939  0.16121139  0.23103817     0.16730
O366        O  0.46229855  0.10017192  0.22822739    -0.60300
H367        H  0.44710078  0.09995037  0.24524715     0.43730
H368        H  0.58612821  0.15966271  0.25764976     0.43680
C369        C  0.51406457  0.83474104  0.24999256    -0.05380
C370        C  0.54211372  0.85108322  0.25780912    -0.32810
C371        C  0.54337360  0.88428581  0.25771270     0.36440
C372        C  0.51609605  0.90203294  0.25012990    -0.05740
C373        C  0.48808139  0.88578841  0.24230441    -0.32710
C374        C  0.48687716  0.85258659  0.24207965     0.36350
H375        H  0.56327469  0.83819892  0.26437052     0.16720
O376        O  0.57116679  0.89904499  0.26602877    -0.60200
H377        H  0.46694299  0.89884830  0.23587730     0.16730
O378        O  0.45936983  0.83803068  0.23267989    -0.60300
H379        H  0.44435423  0.84077750  0.24968472     0.43730
H380        H  0.58418648  0.89923482  0.24743133     0.43680
C381        C  0.85020919  0.50102163  0.24992978    -0.05380
C382        C  0.86657987  0.47305798  0.24207854    -0.32810
C383        C  0.89979417  0.47196250  0.24216728     0.36440
C384        C  0.91752159  0.49932033  0.24978619    -0.05740
C385        C  0.90125255  0.52725188  0.25764632    -0.32710
C386        C  0.86804315  0.52828971  0.25788805     0.36350
H387        H  0.85370244  0.45184042  0.23548415     0.16720
O388        O  0.91456846  0.44425179  0.23379423    -0.60200
H389        H  0.91430855  0.54844586  0.26410264     0.16730
O390        O  0.85349721  0.55571283  0.26735240    -0.60300
H391        H  0.85586748  0.57078780  0.25040069     0.43730
H392        H  0.91516264  0.43119220  0.25235638     0.43680
N393        N  0.68100738  0.43240940  0.75075228    -0.27200
N394        N  0.65672865  0.45206894  0.75047261    -0.35060
C395        C  0.62962205  0.43589632  0.75005912     0.01140
C396        C  0.63649389  0.40391075  0.75011576     0.07160
C397        C  0.66959692  0.40227412  0.75053943    -0.05940
H398        H  0.60650908  0.44704768  0.74973514     0.07830
H399        H  0.68407226  0.38105469  0.75071564     0.09030
Cu400      Cu  0.66015246  0.50013151  0.75065277     0.44170
Cu401      Cu  0.72605231  0.45318113  0.75117861     0.41990
Cu402      Cu  0.72529776  0.54702554  0.74703114     0.43880
N403        N  0.65623222  0.54815762  0.75014410    -0.34590
N404        N  0.68036142  0.56783902  0.74847162    -0.28840
C405        C  0.66885565  0.59793814  0.74814682    -0.04940
C406        C  0.63582143  0.59626620  0.74968877     0.07270
C407        C  0.62909280  0.56428635  0.75094796     0.01070
H408        H  0.68321421  0.61914666  0.74676274     0.08720
H409        H  0.60605802  0.55311239  0.75217495     0.07800
N410        N  0.76427472  0.51611583  0.74827195    -0.36040
N411        N  0.76463234  0.48465018  0.75031178    -0.28220
C412        C  0.79500711  0.47484433  0.75132184    -0.03460
C413        C  0.81485303  0.50101517  0.74982616     0.05150
C414        C  0.79435844  0.52666481  0.74770374     0.03250
H415        H  0.80200947  0.45023649  0.75322948     0.08350
H416        H  0.80045816  0.55140306  0.74536116     0.07180
N417        N  0.44694871  0.66506033  0.75130772    -0.27200
N418        N  0.46665920  0.64085857  0.75018299    -0.35060
C419        C  0.45054244  0.61371872  0.74941683     0.01140
C420        C  0.41854378  0.62052171  0.75012359     0.07160
C421        C  0.41684467  0.65360007  0.75130125    -0.05940
H422        H  0.46173314  0.59063827  0.74849900     0.07830
H423        H  0.39561114  0.66802464  0.75216608     0.09030
Cu424      Cu  0.51469920  0.64466372  0.75001358     0.44170
Cu425      Cu  0.46769834  0.71003131  0.75247398     0.41990
Cu426      Cu  0.56152025  0.71046225  0.74810514     0.43880
N427        N  0.56276712  0.64120951  0.74975145    -0.34590
N428        N  0.58236538  0.66547244  0.74878055    -0.28840
C429        C  0.61251754  0.65409065  0.74861449    -0.04940
C430        C  0.61096651  0.62101674  0.74957318     0.07270
C431        C  0.57900595  0.61412950  0.75028437     0.01070
H432        H  0.63369040  0.66856803  0.74786927     0.08720
H433        H  0.56791617  0.59102347  0.75101152     0.07800
N434        N  0.53012490  0.74910898  0.74923456    -0.36040
N435        N  0.49866574  0.74890541  0.75134930    -0.28220
C436        C  0.48821095  0.77904729  0.75209902    -0.03460
C437        C  0.51392662  0.79939521  0.75001621     0.05150
C438        C  0.54002455  0.77941916  0.74835913     0.03250
H439        H  0.46349702  0.78529479  0.75451649     0.08350
H440        H  0.56464862  0.78628099  0.74641064     0.07180
N441        N  0.44780280  0.33403637  0.75079979    -0.27200
N442        N  0.46740312  0.35832136  0.75019261    -0.35060
C443        C  0.45115657  0.38540080  0.74985459     0.01140
C444        C  0.41919092  0.37850140  0.75029946     0.07160
C445        C  0.41764346  0.34541187  0.75090658    -0.05940
H446        H  0.46224754  0.40851673  0.74938698     0.07830
H447        H  0.39646705  0.33091919  0.75135757     0.09030
Cu448      Cu  0.51549705  0.35497098  0.75000263     0.44170
Cu449      Cu  0.46862377  0.28901239  0.75116787     0.41990
Cu450      Cu  0.56250316  0.28965550  0.74803805     0.43880
N451        N  0.56355622  0.35882359  0.74984150    -0.34590
N452        N  0.58326078  0.33460748  0.74896038    -0.28840
C453        C  0.61337466  0.34603886  0.74899979    -0.04940
C454        C  0.61170190  0.37912154  0.74993422     0.07270
C455        C  0.57969650  0.38595616  0.75046567     0.01070
H456        H  0.63459910  0.33158869  0.74833720     0.08720
H457        H  0.56852347  0.40905097  0.75121991     0.07800
N458        N  0.53163231  0.25072202  0.74899052    -0.36040
N459        N  0.50011459  0.25041241  0.75042946    -0.28220
C460        C  0.49029806  0.22005652  0.75112602    -0.03460
C461        C  0.51652767  0.20024524  0.75016666     0.05150
C462        C  0.54221900  0.22062078  0.74862339     0.03250
H463        H  0.46567134  0.21300598  0.75250295     0.08350
H464        H  0.56699612  0.21432614  0.74679104     0.07180
N465        N  0.34978525  0.43169663  0.75092612    -0.27200
N466        N  0.37394970  0.45138902  0.74975502    -0.35060
C467        C  0.40109425  0.43525417  0.74925424     0.01140
C468        C  0.39433781  0.40326204  0.75017485     0.07160
C469        C  0.36127649  0.40158907  0.75121520    -0.05940
H470        H  0.42414986  0.44643250  0.74839960     0.07830
H471        H  0.34688496  0.38037137  0.75219266     0.09030
Cu472      Cu  0.37011406  0.49944351  0.74931638     0.44170
Cu473      Cu  0.30481619  0.45247389  0.75182810     0.41990
Cu474      Cu  0.30431754  0.54643999  0.74980774     0.43880
N475        N  0.37359023  0.54752521  0.74956915    -0.34590
N476        N  0.34931428  0.56718616  0.74977184    -0.28840
C477        C  0.36069748  0.59732532  0.75001482    -0.04940
C478        C  0.39379073  0.59570266  0.74995224     0.07270
C479        C  0.40068725  0.56371417  0.74968350     0.01070
H480        H  0.34620772  0.61853609  0.75022266     0.08720
H481        H  0.42380719  0.55257604  0.74963798     0.07800
N482        N  0.26570583  0.51506661  0.75005221    -0.36040
N483        N  0.26593369  0.48351192  0.75091871    -0.28220
C484        C  0.23579236  0.47306690  0.75087553    -0.03460
C485        C  0.21553160  0.49890489  0.74974071     0.05150
C486        C  0.23538321  0.52505387  0.74940618     0.03250
H487        H  0.22934762  0.44829482  0.75218319     0.08350
H488        H  0.22836258  0.54973557  0.74848498     0.07180
O489        O  0.98773880  0.54784013  0.00016245    -0.72860
O490        O  0.98745186  0.45236141  0.99851651    -0.73840
O491        O  0.98728199  0.49953369  0.54501377    -0.62100
O492        O  0.98777598  0.50055821  0.95431355    -0.70870
O493        O  0.04036081  0.49954430  0.95499500    -0.70420
O494        O  0.03990838  0.50038888  0.54589516    -0.61670
O495        O  0.04011384  0.45233497  0.00068843    -0.74180
O496        O  0.04042030  0.54753610  0.00086860    -0.72960
Cu497      Cu  0.98572324  0.50008489  0.99951053     1.04560
Cu498      Cu  0.04202832  0.49993909  0.00059818     1.04330
C499        C  0.01417467  0.56273772  0.00068967     0.93340
C500        C  0.01379270  0.43731493  0.99947214     0.92480
C501        C  0.01347172  0.49987234  0.55984472     0.84630
C502        C  0.01411074  0.50014046  0.94022569     0.90900
O503        O  0.96801320  0.47312336  0.75048583    -0.72860
O504        O  0.06312372  0.47392709  0.74886446    -0.73840
O505        O  0.01706514  0.47356216  0.79518812    -0.62460
O506        O  0.01406545  0.47339739  0.70438173    -0.70870
O507        O  0.01626102  0.52610492  0.70489310    -0.70420
O508        O  0.01426360  0.52625324  0.79562338    -0.61670
O509        O  0.06279222  0.52651646  0.75151453    -0.74180
O510        O  0.96766678  0.52570542  0.74924195    -0.72960
Cu511      Cu  0.01559421  0.47165067  0.74972991     1.04560
Cu512      Cu  0.01522817  0.52799184  0.75031752     1.04330
C513        C  0.95271984  0.49931323  0.74978528     0.93340
C514        C  0.07804390  0.50031942  0.75028012     0.92480
C515        C  0.01573016  0.49992513  0.80963308     0.84630
C516        C  0.01508828  0.49975452  0.69039360     0.90900
O517        O  0.56343113  0.02620517  0.99998875    -0.72860
O518        O  0.46810813  0.02677783  0.00083973    -0.73840
O519        O  0.51649672  0.02656202  0.54549141    -0.62460
O520        O  0.51488544  0.02641271  0.95474227    -0.70870
O521        O  0.51627321  0.97376054  0.95426934    -0.70420
O522        O  0.51513521  0.97401034  0.54511345    -0.61670
O523        O  0.46792268  0.97409969  0.99857553    -0.74180
O524        O  0.56325665  0.97356060  0.00017089    -0.72960
Cu525      Cu  0.51574178  0.02831766  0.00025044     1.04560
Cu526      Cu  0.51561526  0.97201802  0.99955465     1.04330
C527        C  0.57843303  0.99980917  0.00000108     0.93340
C528        C  0.45300421  0.00050187  0.99972958     0.92480
C529        C  0.51585634  0.00034912  0.55975673     0.84630
C530        C  0.51574123  0.00007787  0.94015029     0.90900
O531        O  0.54247912  0.95239204  0.74963622    -0.72860
O532        O  0.54176936  0.04760059  0.75103109    -0.73840
O533        O  0.54223456  0.99942952  0.79563446    -0.62460
O534        O  0.54221105  0.00043445  0.70487724    -0.70870
O535        O  0.48949258  0.99821845  0.70434342    -0.70420
O536        O  0.48953943  0.00155390  0.79513564    -0.61670
O537        O  0.48919064  0.04732583  0.74866583    -0.74180
O538        O  0.48988948  0.95229090  0.75060041    -0.72960
Cu539      Cu  0.54402484  0.99998362  0.75029996     1.04560
Cu540      Cu  0.48768696  0.99981903  0.74968751     1.04330
C541        C  0.51623835  0.93722477  0.75017262     0.93340
C542        C  0.51538051  0.06257007  0.74975023     0.92480
C543        C  0.51587921  0.00069540  0.80965255     0.84630
C544        C  0.51587685  0.99919358  0.69039406     0.90900
N545        N  0.08401345  0.83414643  0.00048822    -0.27200
N546        N  0.06435982  0.85843974  0.00001379    -0.35060
C547        C  0.08056343  0.88554232  0.99971329     0.01140
C548        C  0.11257799  0.87871504  0.00000644     0.07160
C549        C  0.11416649  0.84558544  0.00047600    -0.05940
H550        H  0.06940761  0.90864780  0.99930867     0.07830
H551        H  0.13538453  0.83111074  0.00084060     0.09030
Cu552      Cu  0.01619183  0.85511927  0.99987667     0.44170
Cu553      Cu  0.06321197  0.78895153  0.00101480     0.41990
Cu554      Cu  0.96929643  0.78960247  0.99928989     0.43880
N555        N  0.96804700  0.85888156  0.99991981    -0.34590
N556        N  0.94840449  0.83461605  0.99970925    -0.28840
C557        C  0.91824578  0.84601311  0.49978531    -0.04940
C558        C  0.91980060  0.87912339  0.50004563     0.07270
C559        C  0.95181083  0.88599503  0.00012697     0.01070
H560        H  0.89705681  0.83151836  0.49962966     0.08720
H561        H  0.96292066  0.90911560  0.00029720     0.07800
N562        N  0.00018398  0.75050544  0.99915353    -0.36040
N563        N  0.03176700  0.75012909  0.00031240    -0.28220
C564        C  0.04157909  0.71969251  0.00050820    -0.03460
C565        C  0.01529891  0.70003709  0.99901949     0.05150
C566        C  0.98957573  0.72040106  0.99829863     0.03250
H567        H  0.06620199  0.71240324  0.00133267     0.08350
H568        H  0.96474013  0.71392115  0.99787752     0.07180
N569        N  0.18169332  0.06790515  0.00106970    -0.27200
N570        N  0.15742118  0.04827043  0.99999432    -0.35060
C571        C  0.13032575  0.06452632  0.99938756     0.01140
C572        C  0.13719340  0.09653385  0.00013782     0.07160
C573        C  0.17029648  0.09807148  0.00118340    -0.05940
H574        H  0.10720906  0.05342347  0.99857727     0.07830
H575        H  0.18478644  0.11925698  0.00204114     0.09030
Cu576      Cu  0.16094679  0.00008398  0.99974075     0.44170
Cu577      Cu  0.22678872  0.04712484  0.00205464     0.41990
Cu578      Cu  0.22687983  0.95326431  0.99822267     0.43880
N579        N  0.15752147  0.95189701  0.99979543    -0.34590
N580        N  0.18184264  0.93229263  0.99917272    -0.28840
C581        C  0.17050116  0.90210918  0.99926998    -0.04940
C582        C  0.13738269  0.90361050  0.99995720     0.07270
C583        C  0.13046498  0.93562062  0.00029513     0.01070
H584        H  0.18503276  0.88093180  0.99876103     0.08720
H585        H  0.10733284  0.94671446  0.00080262     0.07800
N586        N  0.26576974  0.98452641  0.99836025    -0.36040
N587        N  0.26576083  0.01606468  0.00065015    -0.28220
C588        C  0.29602035  0.02631728  0.00107425    -0.03460
C589        C  0.31595610  0.00042031  0.99843263     0.05150
C590        C  0.29602875  0.97440627  0.99681263     0.03250
H591        H  0.30298601  0.05099432  0.00274806     0.08350
H592        H  0.30299106  0.94972427  0.99529510     0.07180
N593        N  0.08384004  0.16600957  0.00067068    -0.27200
N594        N  0.06419190  0.14174306  0.00006683    -0.35060
C595        C  0.08038246  0.11461266  0.99971621     0.01140
C596        C  0.11238697  0.12142129  0.00014394     0.07160
C597        C  0.11398897  0.15454774  0.00074610    -0.05940
H598        H  0.06922950  0.09151314  0.99929551     0.07830
H599        H  0.13520463  0.16900294  0.00123874     0.09030
Cu600      Cu  0.01608525  0.14528663  0.99999434     0.44170
Cu601      Cu  0.06292037  0.21111800  0.00128227     0.41990
Cu602      Cu  0.96898518  0.21088033  0.99821473     0.43880
N603        N  0.96799086  0.14158802  0.99980529    -0.34590
N604        N  0.94828249  0.16581040  0.99898511    -0.28840
C605        C  0.91816387  0.15435398  0.99890603    -0.04940
C606        C  0.91983378  0.12126741  0.99971247     0.07270
C607        C  0.95184897  0.11445965  0.00027826     0.01070
H608        H  0.89692601  0.16878982  0.99826312     0.08720
H609        H  0.96303025  0.09137169  0.00090122     0.07800
N610        N  0.99999880  0.24985944  0.99914862    -0.36040
N611        N  0.03156060  0.24996989  0.00094921    -0.28220
C612        C  0.04161229  0.28028442  0.00200390    -0.03460
C613        C  0.01551241  0.30015697  0.00065560     0.05150
C614        C  0.98965121  0.28008283  0.99865634     0.03250
H615        H  0.06630081  0.28727364  0.00303890     0.08350
H616        H  0.96492238  0.28693820  0.99736376     0.07180
N617        N  0.85029646  0.93241635  0.50011743    -0.27200
N618        N  0.87454794  0.95208760  0.50025845    -0.35060
C619        C  0.90169179  0.93591970  0.50026451     0.01140
C620        C  0.89490772  0.90391338  0.50013438     0.07160
C621        C  0.86178673  0.90227966  0.50004583    -0.05940
H622        H  0.92478221  0.94708896  0.50032852     0.07830
H623        H  0.84735193  0.88104952  0.49991002     0.09030
Cu624      Cu  0.87103366  0.00019280  0.50033755     0.44170
Cu625      Cu  0.80512542  0.95320465  0.49996792     0.41990
Cu626      Cu  0.80546868  0.04713023  0.49907383     0.43880
N627        N  0.87475894  0.04827635  0.50004739    -0.34590
N628        N  0.85050326  0.06795010  0.49942755    -0.28840
C629        C  0.86192965  0.09807736  0.49922966    -0.04940
C630        C  0.89503515  0.09644637  0.99976930     0.07270
C631        C  0.90188404  0.06444466  0.00028184     0.01070
H632        H  0.84745941  0.11929345  0.99872193     0.08720
H633        H  0.92499430  0.05329071  0.00072343     0.07800
N634        N  0.76648045  0.01615091  0.49972198    -0.36040
N635        N  0.76627450  0.98456872  0.49997210    -0.28220
C636        C  0.73592500  0.97461785  0.50034693    -0.03460
C637        C  0.71604900  0.00080734  0.50055890     0.05150
C638        C  0.73631786  0.02663409  0.49999405     0.03250
H639        H  0.72887995  0.94993470  0.50075027     0.08350
H640        H  0.72981044  0.05143859  0.49921495     0.07180
C641        C  0.61357643  0.99977023  0.00001123    -0.05380
C642        C  0.63010843  0.02519682  0.51350177    -0.32810
C643        C  0.66336322  0.02586664  0.51399460     0.36440
C644        C  0.68078940  0.00086462  0.50062303    -0.05740
C645        C  0.66418964  0.97542344  0.98712161    -0.32710
C646        C  0.63094137  0.97468007  0.98681335     0.36350
H647        H  0.61720594  0.04445464  0.52421978     0.16720
O648        O  0.67849277  0.05023341  0.52901826    -0.60200
H649        H  0.67698859  0.95616209  0.97632832     0.16730
O650        O  0.61569475  0.94999956  0.97237075    -0.60300
H651        H  0.61561193  0.93247155  0.98720070     0.43730
H652        H  0.67581837  0.06904187  0.51589361     0.43680
C653        C  0.41801658  0.00062194  0.99958693    -0.05380
C654        C  0.40143479  0.98092438  0.97916180    -0.32810
C655        C  0.36817709  0.98083478  0.97837229     0.36440
C656        C  0.35104294  0.00052070  0.99835432    -0.05740
C657        C  0.36767140  0.02037233  0.51866340    -0.32710
C658        C  0.40091716  0.02035950  0.51952091     0.36350
H659        H  0.41431917  0.96599406  0.96337367     0.16720
O660        O  0.35266142  0.96278665  0.95689675    -0.60200
H661        H  0.35483994  0.03546510  0.53434400     0.16730
O662        O  0.41647177  0.03919458  0.54034476    -0.60300
H663        H  0.41809389  0.02617159  0.55888751     0.43730
H664        H  0.35407089  0.94064317  0.96421081     0.43680
C665        C  0.51604327  0.00009687  0.90671084    -0.05380
C666        C  0.50009199  0.02422924  0.89095612    -0.32810
C667        C  0.49950292  0.02441055  0.85926458     0.36440
C668        C  0.51589839  0.00086506  0.84291719    -0.05740
C669        C  0.53248185  0.97718739  0.85854633    -0.32710
C670        C  0.53218772  0.97632869  0.89020951     0.36350
H671        H  0.48763310  0.04274093  0.90323254     0.16720
O672        O  0.48397220  0.04840647  0.84445908    -0.60200
H673        H  0.54526574  0.95899321  0.84613271     0.16730
O674        O  0.54877052  0.95288768  0.90480443    -0.60300
H675        H  0.53448592  0.93417650  0.90449453     0.43730
H676        H  0.46139347  0.04178501  0.84362343     0.43680
C677        C  0.51592466  0.99926327  0.65723568    -0.05380
C678        C  0.52220788  0.02753556  0.64208384    -0.32810
C679        C  0.52187968  0.02842578  0.61042719     0.36440
C680        C  0.51588126  0.00041903  0.59338515    -0.05740
C681        C  0.50978656  0.97204349  0.60889676    -0.32710
C682        C  0.50966458  0.97140562  0.64057435     0.36350
H683        H  0.52704977  0.04910468  0.65487440     0.16720
O684        O  0.52810125  0.05669205  0.59651479    -0.60200
H685        H  0.50493965  0.95025465  0.59649240     0.16730
O686        O  0.50341792  0.94346896  0.65507457    -0.60300
H687        H  0.52437984  0.93308129  0.65774554     0.43730
H688        H  0.50743676  0.06797727  0.59575947     0.43680
C689        C  0.01517232  0.33528174  0.00061435    -0.05380
C690        C  0.99351141  0.35134973  0.98187338    -0.32810
C691        C  0.99279106  0.38459369  0.98125789     0.36440
C692        C  0.01395940  0.40228715  0.99956384    -0.05740
C693        C  0.03555351  0.38625941  0.51834348    -0.32710
C694        C  0.03621651  0.35302759  0.51904990     0.36350
H695        H  0.97742627  0.33808885  0.96726641     0.16720
O696        O  0.97243534  0.39953699  0.96160805    -0.60200
H697        H  0.05161876  0.39956597  0.53294453     0.16730
O698        O  0.05629429  0.33816933  0.53901658    -0.60300
H699        H  0.07773705  0.34003347  0.53011759     0.43730
H700        H  0.95165345  0.39994866  0.97197465     0.43680
C701        C  0.01441932  0.59780196  0.00070626    -0.05380
C702        C  0.99190348  0.61425228  0.98330276    -0.32810
C703        C  0.99203771  0.64749764  0.98234846     0.36440
C704        C  0.01483141  0.66486558  0.99918635    -0.05740
C705        C  0.03734678  0.64835516  0.51660534    -0.32710
C706        C  0.03728647  0.61511444  0.51743132     0.36350
H707        H  0.97453245  0.60126445  0.96985958     0.16720
O708        O  0.97094379  0.66267977  0.96358799    -0.60200
H709        H  0.05477408  0.66126630  0.53003303     0.16730
O710        O  0.05873852  0.59982360  0.53573891    -0.60300
H711        H  0.07867526  0.59893648  0.52398904     0.43730
H712        H  0.95007641  0.66105336  0.97367959     0.43680
C713        C  0.01555952  0.50000514  0.84281362    -0.05380
C714        C  0.98819775  0.50969693  0.85805981    -0.32810
C715        C  0.98717907  0.50947225  0.88970968     0.36440
C716        C  0.01424145  0.50024790  0.90664392    -0.05740
C717        C  0.04180252  0.49096844  0.89109744    -0.32710
C718        C  0.04249119  0.49063844  0.85941728     0.36350
H719        H  0.96738559  0.51707105  0.84534506     0.16720
O720        O  0.95987714  0.51914246  0.90376972    -0.60200
H721        H  0.06283862  0.48368832  0.90349135     0.16730
O722        O  0.06963878  0.48134193  0.84486593    -0.60300
H723        H  0.08196911  0.50113208  0.84204387     0.43730
H724        H  0.94594315  0.50016661  0.90373339     0.43680
C725        C  0.01480445  0.49975726  0.65717635    -0.05380
C726        C  0.98897578  0.48653895  0.64138306    -0.32810
C727        C  0.98786549  0.48693712  0.60969733     0.36440
C728        C  0.01340483  0.49980412  0.59335650    -0.05740
C729        C  0.03948132  0.51257872  0.60938609    -0.32710
C730        C  0.04015928  0.51283913  0.64105658     0.36350
H731        H  0.96938481  0.47630742  0.65368529     0.16720
O732        O  0.96222941  0.47371761  0.59497817    -0.60200
H733        H  0.05931332  0.52267332  0.59734780     0.16730
O734        O  0.06585360  0.52559276  0.65607292    -0.60300
H735        H  0.08085509  0.50766280  0.65879266     0.43730
H736        H  0.94574128  0.49054070  0.59494668     0.43680
C737        C  0.18031717  0.49895719  0.74966155    -0.05380
C738        C  0.16403637  0.52515339  0.76189685    -0.32810
C739        C  0.13082810  0.52607095  0.76215670     0.36440
C740        C  0.11317064  0.50035670  0.75023235    -0.05740
C741        C  0.12941221  0.47421773  0.73792776    -0.32710
C742        C  0.16261774  0.47336903  0.73748896     0.36350
H743        H  0.17704697  0.54492660  0.77173157     0.16720
O744        O  0.11596702  0.55168704  0.77519561    -0.60200
H745        H  0.11633060  0.45444903  0.72813181     0.16730
O746        O  0.17738682  0.44815045  0.72368431    -0.60300
H747        H  0.17486197  0.43009679  0.73771771     0.43730
H748        H  0.11550084  0.56817969  0.75932200     0.43680
C749        C  0.51531210  0.09774342  0.74973209    -0.05380
C750        C  0.54219769  0.11423916  0.76032311    -0.32810
C751        C  0.54302316  0.14745994  0.76070298     0.36440
C752        C  0.51663525  0.16497777  0.75017809    -0.05740
C753        C  0.48971958  0.14843213  0.73961158    -0.32710
C754        C  0.48881903  0.11521899  0.73946149     0.36350
H755        H  0.56263261  0.10136358  0.76883157     0.16720
O756        O  0.56913984  0.16241337  0.77286602    -0.60200
H757        H  0.46927941  0.16121137  0.73103817     0.16730
O758        O  0.46229858  0.10017190  0.72822737    -0.60300
H759        H  0.44710081  0.09995035  0.74524714     0.43730
H760        H  0.58612823  0.15966271  0.75764978     0.43680
C761        C  0.51406461  0.83474102  0.74999261    -0.05380
C762        C  0.54211376  0.85108320  0.75780917    -0.32810
C763        C  0.54337364  0.88428579  0.75771274     0.36440
C764        C  0.51609609  0.90203292  0.75012993    -0.05740
C765        C  0.48808144  0.88578840  0.74230445    -0.32710
C766        C  0.48687720  0.85258657  0.74207969     0.36350
H767        H  0.56327473  0.83819891  0.76437057     0.16720
O768        O  0.57116683  0.89904498  0.76602880    -0.60200
H769        H  0.46694304  0.89884828  0.73587733     0.16730
O770        O  0.45936988  0.83803066  0.73267993    -0.60300
H771        H  0.44435427  0.84077749  0.74968475     0.43730
H772        H  0.58418652  0.89923480  0.74743136     0.43680
C773        C  0.85020921  0.50102161  0.74992981    -0.05380
C774        C  0.86657989  0.47305796  0.74207856    -0.32810
C775        C  0.89979419  0.47196249  0.74216730     0.36440
C776        C  0.91752161  0.49932032  0.74978621    -0.05740
C777        C  0.90125257  0.52725186  0.75764634    -0.32710
C778        C  0.86804317  0.52828969  0.75788808     0.36350
H779        H  0.85370247  0.45184040  0.73548416     0.16720
O780        O  0.91456849  0.44425178  0.73379424    -0.60200
H781        H  0.91430856  0.54844585  0.76410266     0.16730
O782        O  0.85349723  0.55571280  0.76735245    -0.60300
H783        H  0.85586750  0.57078778  0.75040074     0.43730
H784        H  0.91516267  0.43119219  0.75235638     0.43680
loop_ 
_geom_bond_atom_site_label_1 
_geom_bond_atom_site_label_2 
_geom_bond_distance 
_geom_bond_site_symmetry_2 
_ccdc_geom_bond_type 
N1            N2   1.316       .  A
N1            C5   1.358       .  A
N1           Cu9   2.090       .  S
N2            C3   1.330       .  A
N2           Cu8   2.030       .  S
C3            C4   1.378       .  A
C3            H6   1.081       .  S
C4            C5   1.396       .  A
C4           C62   1.477       .  S
C5            H7   1.082       .  S
Cu8          N11   2.030       .  S
Cu9          N19   2.099       .  S
Cu10         N12   2.087       .  S
Cu10         N18   2.095       .  S
N11          N12   1.315       .  A
N11          C15   1.330       .  A
N12          C13   1.357       .  A
C13          C14   1.396       .  A
C13          H16   1.082       .  S
C14          C15   1.378       .  A
C14          C38   1.477       .  S
C15          H17   1.081       .  S
N18          N19   1.329       .  A
N18          C22   1.344       .  A
N19          C20   1.345       .  A
C20          C21   1.386       .  A
C20          H23   1.081       .  S
C21          C22   1.386       .  A
C21         C381   1.489       .  S
C22          H24   1.080       .  S
N25          N26   1.315       .  A
N25          C29   1.357       .  A
N25         Cu33   2.087       .  S
N26          C27   1.330       .  A
N26         Cu32   2.030       .  S
C27          C28   1.378       .  A
C27          H30   1.081       .  S
C28          C29   1.396       .  A
C28          C86   1.477       .  S
C29          H31   1.082       .  S
Cu32         N35   2.030       .  S
Cu33         N43   2.095       .  S
Cu34         N36   2.088       .  S
Cu34         N42   2.097       .  S
N35          N36   1.315       .  A
N35          C39   1.330       .  A
N36          C37   1.357       .  A
C37          C38   1.396       .  A
C37          H40   1.082       .  S
C38          C39   1.378       .  A
C39          H41   1.081       .  S
N42          N43   1.329       .  A
N42          C46   1.344       .  A
N43          C44   1.344       .  A
C44          C45   1.386       .  A
C44          H47   1.080       .  S
C45          C46   1.386       .  A
C45         C369   1.489       .  S
C46          H48   1.081       .  S
N49          N50   1.316       .  A
N49          C53   1.358       .  A
N49         Cu57   2.089       .  S
N50          C51   1.330       .  A
N50         Cu56   2.031       .  S
C51          C52   1.378       .  A
C51          H54   1.081       .  S
C52          C53   1.396       .  A
C52          C76   1.477       .  S
C53          H55   1.082       .  S
Cu56         N59   2.031       .  S
Cu57         N67   2.098       .  S
Cu58         N60   2.086       .  S
Cu58         N66   2.095       .  S
N59          N60   1.315       .  A
N59          C63   1.330       .  A
N60          C61   1.357       .  A
C61          C62   1.396       .  A
C61          H64   1.082       .  S
C62          C63   1.379       .  A
C63          H65   1.081       .  S
N66          N67   1.330       .  A
N66          C70   1.344       .  A
N67          C68   1.345       .  A
C68          C69   1.385       .  A
C68          H71   1.082       .  S
C69          C70   1.384       .  A
C69         C360   1.486       .  S
C70          H72   1.080       .  S
N73          N74   1.315       .  A
N73          C77   1.357       .  A
N73         Cu81   2.087       .  S
N74          C75   1.330       .  A
N74         Cu80   2.031       .  S
C75          C76   1.379       .  A
C75          H78   1.081       .  S
C76          C77   1.396       .  A
C77          H79   1.082       .  S
Cu80         N83   2.031       .  S
Cu81         N91   2.095       .  S
Cu82         N84   2.088       .  S
Cu82         N90   2.097       .  S
N83          N84   1.315       .  A
N83          C87   1.330       .  A
N84          C85   1.357       .  A
C85          C86   1.396       .  A
C85          H88   1.082       .  S
C86          C87   1.378       .  A
C87          H89   1.081       .  S
N90          N91   1.330       .  A
N90          C94   1.345       .  A
N91          C92   1.344       .  A
C92          C93   1.384       .  A
C92          H95   1.081       .  S
C93          C94   1.384       .  A
C93         C345   1.483       .  S
C94          H96   1.082       .  S
O97        Cu105   2.013       .  S
O97         C107   1.279   1_655  A
O98        Cu105   2.012       .  S
O98         C108   1.278   1_655  A
O99        Cu497   2.011   1_554  S
O99         C109   1.278   1_655  A
O100       Cu105   2.000       .  S
O100        C110   1.277   1_655  A
O101       Cu106   2.015       .  S
O101        C110   1.279       .  A
O102       Cu498   2.004       .  S
O102        C109   1.278       .  A
O103       Cu106   2.007       .  S
O103        C108   1.277       .  A
O104       Cu106   2.006       .  S
O104        C107   1.277       .  A
Cu105       O491   2.011       .  S
Cu105      Cu106   2.372   1_655  S
Cu106       O494   2.004       .  S
C107        C309   1.477       .  S
C108        C300   1.476       .  S
C109        C336   1.481       .  S
C110        C324   1.484       .  S
O111       Cu119   2.006   1_655  S
O111        C121   1.278       .  A
O112       Cu119   2.005       .  S
O112        C122   1.278       .  A
O113       Cu119   2.010       .  S
O113        C123   1.277       .  A
O114       Cu119   2.006       .  S
O114        C124   1.277       .  A
O115       Cu120   2.009       .  S
O115        C124   1.277       .  A
O116       Cu120   2.004       .  S
O116        C123   1.276       .  A
O117       Cu120   2.005       .  S
O117        C122   1.277       .  A
O118       Cu120   2.006   1_655  S
O118        C121   1.279       .  A
Cu119      Cu120   2.373       .  S
C121        C384   1.483       .  S
C122        C348   1.480       .  S
C123        C321   1.466       .  S
C124        C333   1.468       .  S
O125       Cu133   2.011       .  S
O125        C135   1.279   1_545  A
O126       Cu133   2.008       .  S
O126        C136   1.277       .  A
O127       Cu525   2.001       .  S
O127        C137   1.277       .  A
O128       Cu133   2.012       .  S
O128        C138   1.278       .  A
O129       Cu134   2.003       .  S
O129        C138   1.277   1_565  A
O130       Cu526   2.014   1_554  S
O130        C137   1.279   1_565  A
O131       Cu134   2.011       .  S
O131        C136   1.278   1_565  A
O132       Cu134   2.008       .  S
O132        C135   1.278       .  A
Cu133       O519   2.001       .  S
Cu133      Cu134   2.371   1_545  S
Cu134       O522   2.014       .  S
C135        C249   1.480       .  S
C136        C261   1.474       .  S
C137        C288   1.486       .  S
C138        C273   1.478       .  S
O139       Cu147   2.006       .  S
O139        C149   1.278       .  A
O140       Cu147   2.008   1_545  S
O140        C150   1.279       .  A
O141       Cu147   2.005       .  S
O141        C151   1.277   1_565  A
O142       Cu147   2.008   1_545  S
O142        C152   1.277   1_545  A
O143       Cu148   2.006       .  S
O143        C152   1.276       .  A
O144       Cu148   2.009   1_545  S
O144        C151   1.277       .  A
O145       Cu148   2.003   1_545  S
O145        C150   1.277       .  A
O146       Cu148   2.005       .  S
O146        C149   1.278       .  A
Cu147      Cu148   2.373       .  S
C149        C372   1.482       .  S
C150        C357   1.482       .  S
C151        C276   1.470       .  S
C152        C285   1.465       .  S
N153        N154   1.316       .  A
N153        C157   1.359       .  A
N153       Cu161   2.097       .  S
N154        C155   1.331       .  A
N154       Cu160   2.034       .  S
C155        C156   1.379       .  A
C155        H158   1.081       .  S
C156        C157   1.397       .  A
C156        C190   1.481       .  S
C157        H159   1.082       .  S
Cu160       N163   2.034   1_455  S
Cu161       N171   2.105       .  S
Cu162       N164   2.090       .  S
Cu162       N170   2.098   1_655  S
N163        N164   1.315       .  A
N163        C167   1.331       .  A
N164        C557   1.358       .  A
C165        N556   1.358       .  A
C165        C166   1.396   1_556  A
C165        H168   1.082       .  S
C166        C559   1.379       .  A
C166        C228   1.479       .  S
C167        C558   1.379       .  A
C167        H169   1.081       .  S
N170        N171   1.331       .  A
N170        C174   1.345   1_455  A
N171        C172   1.347       .  A
C172        C173   1.384       .  A
C172        H175   1.082       .  S
C173        C174   1.382   1_455  A
C173        C312   1.482       .  S
C174        H176   1.081       .  S
N177        N178   1.316       .  A
N177        C181   1.358       .  A
N177       Cu185   2.091       .  S
N178        C179   1.331       .  A
N178       Cu184   2.035       .  S
C179        C180   1.379       .  A
C179        H182   1.081       .  S
C180        C181   1.396       .  A
C180        C204   1.480       .  S
C181        H183   1.082       .  S
Cu184       N187   2.035   1_545  S
Cu185       N195   2.100       .  S
Cu186       N188   2.094       .  S
Cu186       N194   2.102       .  S
N187        N188   1.316       .  A
N187        C191   1.331       .  A
N188        C189   1.359       .  A
C189        C190   1.397       .  A
C189        H192   1.082       .  S
C190        C191   1.379       .  A
C191        H193   1.081       .  S
N194        N195   1.331   1_565  A
N194        C198   1.346       .  A
N195        C196   1.346       .  A
C196        C197   1.381       .  A
C196        H199   1.082       .  S
C197        C198   1.382   1_545  A
C197        C264   1.478       .  S
C198        H200   1.082       .  S
N201        N202   1.316       .  A
N201        C205   1.358       .  A
N201       Cu209   2.094       .  S
N202        C203   1.330       .  A
N202       Cu208   2.032       .  S
C203        C204   1.378       .  A
C203        H206   1.081       .  S
C204        C205   1.397       .  A
C205        H207   1.082       .  S
Cu208       N211   2.032   1_455  S
Cu209       N219   2.103       .  S
Cu210       N212   2.090       .  S
Cu210       N218   2.099       .  S
N211        N212   1.316       .  A
N211        C215   1.331       .  A
N212        C213   1.358       .  A
C213        C214   1.396       .  A
C213        H216   1.082       .  S
C214        C215   1.379       .  A
C214        C238   1.479       .  S
C215        H217   1.081       .  S
N218        N219   1.331   1_655  A
N218        C222   1.346       .  A
N219        C220   1.346       .  A
C220        C221   1.383       .  A
C220        H223   1.082       .  S
C221        C222   1.381   1_455  A
C221        C297   1.480       .  S
C222        H224   1.082       .  S
N225        N226   1.316       .  A
N225        C229   1.358       .  A
N225       Cu233   2.094   1_554  S
N226        C227   1.330       .  A
N226       Cu232   2.032   1_565  S
C227        C228   1.378       .  A
C227        H230   1.081       .  S
C228        C229   1.397       .  A
C229        H231   1.082   1_554  S
Cu232       N235   2.032       .  S
Cu233       N243   2.103       .  S
Cu234       N236   2.090       .  S
Cu234       N242   2.099       .  S
N235        N236   1.315   1_554  A
N235        C631   1.331       .  A
N236        C237   1.358       .  A
C237        C630   1.396       .  A
C237        H632   1.082       .  S
C238        C239   1.379       .  A
C238        C629   1.396       .  A
C239        N627   1.331       .  A
C239        H241   1.081       .  S
H240        C629   1.082       .  S
N242        N243   1.331   1_545  A
N242        C246   1.345       .  A
N243        C244   1.346   1_556  A
C244        C245   1.384   1_565  A
C244        H247   1.082       .  S
C245        C246   1.384   1_554  A
C245        C252   1.485       .  S
C246        H248   1.081       .  S
C249        C254   1.410       .  A
C249        C642   1.403   1_565  A
C250        C251   1.401       .  A
C250        C641   1.403   1_545  A
C250        H255   1.084       .  S
C251        C252   1.411       .  A
C251        O256   1.372       .  S
C252        C645   1.405   1_544  A
C253        C254   1.401       .  A
C253        C644   1.405   1_565  A
C253        H257   1.083       .  S
C254        O258   1.372       .  S
O256        H260   0.992       .  S
O258        H259   0.992       .  S
C261        C262   1.402   1_545  A
C261        C658   1.408       .  A
C262        C263   1.401       .  A
C262        H267   1.084       .  S
C263        C264   1.409   1_565  A
C263        O268   1.372       .  S
C264        C657   1.404       .  A
C265        C266   1.401       .  A
C265        C656   1.404   1_554  A
C265        H269   1.084       .  S
C266        C653   1.408   1_554  A
C266        O270   1.372       .  S
O268        H272   0.992       .  S
O270        H271   0.992       .  S
C273        C274   1.405       .  A
C273        C278   1.411   1_545  A
C274        C275   1.400       .  A
C274        H279   1.084       .  S
C275        C276   1.406       .  A
C275        O280   1.372       .  S
C276        C277   1.401   1_545  A
C277        C278   1.400       .  A
C277        H281   1.084       .  S
C278        O282   1.372       .  S
O280        H284   0.992       .  S
O282        H283   0.992       .  S
C285        C286   1.398   1_565  A
C285        C290   1.403       .  A
C286        C287   1.399       .  A
C286        H291   1.084       .  S
C287        C288   1.415       .  A
C287        O292   1.372       .  S
C288        C289   1.408   1_545  A
C289        C290   1.400       .  A
C289        H293   1.083       .  S
C290        O294   1.372       .  S
O292        H296   0.992       .  S
O294        H295   0.992       .  S
C297        C298   1.405   1_455  A
C297        C694   1.409       .  A
C298        C299   1.401       .  A
C298        H303   1.083       .  S
C299        C300   1.408   1_655  A
C299        O304   1.372       .  S
C300        C693   1.403       .  A
C301        C302   1.401       .  A
C301        C692   1.403   1_554  A
C301        H305   1.084       .  S
C302        C689   1.409       .  A
C302        O306   1.372       .  S
O304        H308   0.992       .  S
O306        H307   0.992       .  S
C309        C310   1.403   1_455  A
C309        C706   1.409       .  A
C310        C311   1.401       .  A
C310        H315   1.084       .  S
C311        C312   1.410   1_655  A
C311        O316   1.372       .  S
C312        C705   1.404       .  A
C313        C314   1.401       .  A
C313        C704   1.404   1_554  A
C313        H317   1.083       .  S
C314        C701   1.409       .  A
C314        O318   1.372       .  S
O316        H320   0.992       .  S
O318        H319   0.992       .  S
C321        C322   1.399   1_455  A
C321        C326   1.404       .  A
C322        C323   1.400       .  A
C322        H327   1.084       .  S
C323        C324   1.414   1_655  A
C323        O328   1.372       .  S
C324        C325   1.407       .  A
C325        C326   1.400       .  A
C325        H329   1.083       .  S
C326        O330   1.372       .  S
O328        H332   0.992       .  S
O330        H331   0.992       .  S
C333        C334   1.400   1_455  A
C333        C338   1.405       .  A
C334        C335   1.401       .  A
C334        H339   1.084       .  S
C335        C336   1.412   1_655  A
C335        O340   1.372       .  S
C336        C337   1.406       .  A
C337        C338   1.399       .  A
C337        H341   1.083       .  S
C338        O342   1.372       .  S
O340        H344   0.992       .  S
O342        H343   0.992       .  S
C345        C346   1.405       .  A
C345        C350   1.411       .  A
C346        C347   1.400       .  A
C346        H351   1.083       .  S
C347        C348   1.410       .  A
C347        O352   1.372       .  S
C348        C349   1.404       .  A
C349        C350   1.399       .  A
C349        H353   1.084       .  S
C350        O354   1.371       .  S
O352        H356   0.992       .  S
O354        H355   0.992       .  S
C357        C358   1.404       .  A
C357        C362   1.411       .  A
C358        C359   1.400       .  A
C358        H363   1.084       .  S
C359        C360   1.412       .  A
C359        O364   1.371       .  S
C360        C361   1.405       .  A
C361        C362   1.400       .  A
C361        H365   1.083       .  S
C362        O366   1.372       .  S
O364        H368   0.992       .  S
O366        H367   0.992       .  S
C369        C370   1.407       .  A
C369        C374   1.413       .  A
C370        C371   1.400       .  A
C370        H375   1.082       .  S
C371        C372   1.410       .  A
C371        O376   1.372       .  S
C372        C373   1.404       .  A
C373        C374   1.399       .  A
C373        H377   1.084       .  S
C374        O378   1.371       .  S
O376        H380   0.992       .  S
O378        H379   0.992       .  S
C381        C382   1.407       .  A
C381        C386   1.413       .  A
C382        C383   1.400       .  A
C382        H387   1.082       .  S
C383        C384   1.410       .  A
C383        O388   1.372       .  S
C384        C385   1.404       .  A
C385        C386   1.400       .  A
C385        H389   1.084       .  S
C386        O390   1.371       .  S
O388        H392   0.992       .  S
O390        H391   0.992       .  S
N393        N394   1.316       .  A
N393        C397   1.358       .  A
N393       Cu401   2.090       .  S
N394        C395   1.330       .  A
N394       Cu400   2.030       .  S
C395        C396   1.378       .  A
C395        H398   1.081       .  S
C396        C397   1.396       .  A
C396        C454   1.477       .  S
C397        H399   1.082       .  S
Cu400       N403   2.030       .  S
Cu401       N411   2.099       .  S
Cu402       N404   2.087       .  S
Cu402       N410   2.095       .  S
N403        N404   1.315       .  A
N403        C407   1.330       .  A
N404        C405   1.357       .  A
C405        C406   1.396       .  A
C405        H408   1.082       .  S
C406        C407   1.378       .  A
C406        C430   1.477       .  S
C407        H409   1.081       .  S
N410        N411   1.329       .  A
N410        C414   1.344       .  A
N411        C412   1.345       .  A
C412        C413   1.386       .  A
C412        H415   1.081       .  S
C413        C414   1.386       .  A
C413        C773   1.489       .  S
C414        H416   1.080       .  S
N417        N418   1.315       .  A
N417        C421   1.357       .  A
N417       Cu425   2.087       .  S
N418        C419   1.330       .  A
N418       Cu424   2.030       .  S
C419        C420   1.378       .  A
C419        H422   1.081       .  S
C420        C421   1.396       .  A
C420        C478   1.477       .  S
C421        H423   1.082       .  S
Cu424       N427   2.030       .  S
Cu425       N435   2.095       .  S
Cu426       N428   2.088       .  S
Cu426       N434   2.097       .  S
N427        N428   1.315       .  A
N427        C431   1.330       .  A
N428        C429   1.357       .  A
C429        C430   1.396       .  A
C429        H432   1.082       .  S
C430        C431   1.378       .  A
C431        H433   1.081       .  S
N434        N435   1.329       .  A
N434        C438   1.344       .  A
N435        C436   1.344       .  A
C436        C437   1.386       .  A
C436        H439   1.080       .  S
C437        C438   1.386       .  A
C437        C761   1.489       .  S
C438        H440   1.081       .  S
N441        N442   1.316       .  A
N441        C445   1.358       .  A
N441       Cu449   2.089       .  S
N442        C443   1.330       .  A
N442       Cu448   2.031       .  S
C443        C444   1.378       .  A
C443        H446   1.081       .  S
C444        C445   1.396       .  A
C444        C468   1.477       .  S
C445        H447   1.082       .  S
Cu448       N451   2.031       .  S
Cu449       N459   2.098       .  S
Cu450       N452   2.086       .  S
Cu450       N458   2.095       .  S
N451        N452   1.315       .  A
N451        C455   1.330       .  A
N452        C453   1.357       .  A
C453        C454   1.396       .  A
C453        H456   1.082       .  S
C454        C455   1.379       .  A
C455        H457   1.081       .  S
N458        N459   1.330       .  A
N458        C462   1.344       .  A
N459        C460   1.345       .  A
C460        C461   1.385       .  A
C460        H463   1.082       .  S
C461        C462   1.384       .  A
C461        C752   1.486       .  S
C462        H464   1.080       .  S
N465        N466   1.315       .  A
N465        C469   1.357       .  A
N465       Cu473   2.087       .  S
N466        C467   1.330       .  A
N466       Cu472   2.031       .  S
C467        C468   1.379       .  A
C467        H470   1.081       .  S
C468        C469   1.396       .  A
C469        H471   1.082       .  S
Cu472       N475   2.031       .  S
Cu473       N483   2.095       .  S
Cu474       N476   2.088       .  S
Cu474       N482   2.097       .  S
N475        N476   1.315       .  A
N475        C479   1.330       .  A
N476        C477   1.357       .  A
C477        C478   1.396       .  A
C477        H480   1.082       .  S
C478        C479   1.378       .  A
C479        H481   1.081       .  S
N482        N483   1.330       .  A
N482        C486   1.345       .  A
N483        C484   1.344       .  A
C484        C485   1.384       .  A
C484        H487   1.081       .  S
C485        C486   1.384       .  A
C485        C737   1.483       .  S
C486        H488   1.082       .  S
O489       Cu497   2.013   1_554  S
O489        C499   1.279   1_655  A
O490       Cu497   2.012       .  S
O490        C500   1.278   1_655  A
O491        C501   1.278   1_655  A
O492       Cu497   2.000       .  S
O492        C502   1.277   1_655  A
O493       Cu498   2.015   1_556  S
O493        C502   1.279       .  A
O494        C501   1.278       .  A
O495       Cu498   2.007       .  S
O495        C500   1.277   1_554  A
O496       Cu498   2.006       .  S
O496        C499   1.277       .  A
Cu497      Cu498   2.372   1_656  S
C499        C701   1.477       .  S
C500        C692   1.476       .  S
C501        C728   1.481       .  S
C502        C716   1.484       .  S
O503       Cu511   2.006   1_655  S
O503        C513   1.278       .  A
O504       Cu511   2.005       .  S
O504        C514   1.278       .  A
O505       Cu511   2.010       .  S
O505        C515   1.277       .  A
O506       Cu511   2.006       .  S
O506        C516   1.277       .  A
O507       Cu512   2.009       .  S
O507        C516   1.277       .  A
O508       Cu512   2.004       .  S
O508        C515   1.276       .  A
O509       Cu512   2.005       .  S
O509        C514   1.277       .  A
O510       Cu512   2.006   1_655  S
O510        C513   1.279       .  A
Cu511      Cu512   2.373       .  S
C513        C776   1.483       .  S
C514        C740   1.480       .  S
C515        C713   1.466       .  S
C516        C725   1.468       .  S
O517       Cu525   2.011   1_556  S
O517        C527   1.279   1_546  A
O518       Cu525   2.008       .  S
O518        C528   1.277   1_554  A
O519        C529   1.277       .  A
O520       Cu525   2.012   1_556  S
O520        C530   1.278       .  A
O521       Cu526   2.003       .  S
O521        C530   1.277   1_565  A
O522        C529   1.279   1_565  A
O523       Cu526   2.011       .  S
O523        C528   1.278   1_565  A
O524       Cu526   2.008   1_554  S
O524        C527   1.278       .  A
Cu525      Cu526   2.371   1_544  S
C527        C641   1.480       .  S
C528        C653   1.474       .  S
C529        C680   1.486       .  S
C530        C665   1.478       .  S
O531       Cu539   2.006       .  S
O531        C541   1.278       .  A
O532       Cu539   2.008   1_545  S
O532        C542   1.279       .  A
O533       Cu539   2.005       .  S
O533        C543   1.277   1_565  A
O534       Cu539   2.008   1_545  S
O534        C544   1.277   1_545  A
O535       Cu540   2.006       .  S
O535        C544   1.276       .  A
O536       Cu540   2.009   1_545  S
O536        C543   1.277       .  A
O537       Cu540   2.003   1_545  S
O537        C542   1.277       .  A
O538       Cu540   2.005       .  S
O538        C541   1.278       .  A
Cu539      Cu540   2.373       .  S
C541        C764   1.482       .  S
C542        C749   1.482       .  S
C543        C668   1.470       .  S
C544        C677   1.465       .  S
N545        N546   1.316       .  A
N545        C549   1.359       .  A
N545       Cu553   2.097       .  S
N546        C547   1.331   1_554  A
N546       Cu552   2.034   1_554  S
C547        C548   1.379   1_556  A
C547        H550   1.081       .  S
C548        C549   1.397       .  A
C548        C582   1.481   1_554  S
C549        H551   1.082       .  S
Cu552       N555   2.034   1_455  S
Cu553       N563   2.105       .  S
Cu554       N556   2.090       .  S
Cu554       N562   2.098   1_655  S
N555        N556   1.315       .  A
N555        C559   1.331   1_556  A
C557        C558   1.396       .  A
C557        H560   1.082       .  S
C558        C620   1.479       .  S
C559        H561   1.081       .  S
N562        N563   1.331   1_556  A
N562        C566   1.345   1_455  A
N563        C564   1.347       .  A
C564        C565   1.384   1_554  A
C564        H567   1.082       .  S
C565        C566   1.382   1_455  A
C565        C704   1.482       .  S
C566        H568   1.081       .  S
N569        N570   1.316   1_554  A
N569        C573   1.358       .  A
N569       Cu577   2.091       .  S
N570        C571   1.331       .  A
N570       Cu576   2.035       .  S
C571        C572   1.379   1_556  A
C571        H574   1.081       .  S
C572        C573   1.396       .  A
C572        C596   1.480       .  S
C573        H575   1.082       .  S
Cu576       N579   2.035   1_545  S
Cu577       N587   2.100       .  S
Cu578       N580   2.094       .  S
Cu578       N586   2.102       .  S
N579        N580   1.316       .  A
N579        C583   1.331   1_556  A
N580        C581   1.359       .  A
C581        C582   1.397       .  A
C581        H584   1.082       .  S
C582        C583   1.379   1_556  A
C583        H585   1.081       .  S
N586        N587   1.331   1_566  A
N586        C590   1.346       .  A
N587        C588   1.346       .  A
C588        C589   1.381   1_554  A
C588        H591   1.082       .  S
C589        C590   1.382   1_545  A
C589        C656   1.478       .  S
C590        H592   1.082       .  S
N593        N594   1.316       .  A
N593        C597   1.358       .  A
N593       Cu601   2.094       .  S
N594        C595   1.330   1_554  A
N594       Cu600   2.032   1_554  S
C595        C596   1.378   1_556  A
C595        H598   1.081       .  S
C596        C597   1.397       .  A
C597        H599   1.082       .  S
Cu600       N603   2.032   1_455  S
Cu601       N611   2.103       .  S
Cu602       N604   2.090       .  S
Cu602       N610   2.099       .  S
N603        N604   1.316       .  A
N603        C607   1.331   1_556  A
N604        C605   1.358       .  A
C605        C606   1.396       .  A
C605        H608   1.082       .  S
C606        C607   1.379   1_556  A
C606        C630   1.479       .  S
C607        H609   1.081       .  S
N610        N611   1.331   1_656  A
N610        C614   1.346       .  A
N611        C612   1.346       .  A
C612        C613   1.383       .  A
C612        H615   1.082       .  S
C613        C614   1.381   1_454  A
C613        C689   1.480       .  S
C614        H616   1.082       .  S
N617        N618   1.316       .  A
N617        C621   1.358       .  A
N617       Cu625   2.094       .  S
N618        C619   1.330       .  A
N618       Cu624   2.032   1_565  S
C619        C620   1.378       .  A
C619        H622   1.081       .  S
C620        C621   1.397       .  A
C621        H623   1.082       .  S
Cu624       N627   2.032       .  S
Cu625       N635   2.103       .  S
Cu626       N628   2.090       .  S
Cu626       N634   2.099       .  S
N627        N628   1.315       .  A
N628        C629   1.358       .  A
C630        C631   1.379   1_556  A
C631        H633   1.081       .  S
N634        N635   1.331   1_545  A
N634        C638   1.345       .  A
N635        C636   1.346       .  A
C636        C637   1.384   1_565  A
C636        H639   1.082       .  S
C637        C638   1.384       .  A
C637        C644   1.485       .  S
C638        H640   1.081       .  S
C641        C646   1.410   1_554  A
C642        C643   1.401       .  A
C642        H647   1.084       .  S
C643        C644   1.411       .  A
C643        O648   1.372       .  S
C645        C646   1.401       .  A
C645        H649   1.083       .  S
C646        O650   1.372       .  S
O648        H652   0.992       .  S
O650        H651   0.992       .  S
C653        C654   1.402   1_545  A
C654        C655   1.401       .  A
C654        H659   1.084       .  S
C655        C656   1.409   1_565  A
C655        O660   1.372       .  S
C657        C658   1.401       .  A
C657        H661   1.084       .  S
C658        O662   1.372       .  S
O660        H664   0.992       .  S
O662        H663   0.992       .  S
C665        C666   1.405       .  A
C665        C670   1.411   1_545  A
C666        C667   1.400       .  A
C666        H671   1.084       .  S
C667        C668   1.406       .  A
C667        O672   1.372       .  S
C668        C669   1.401   1_545  A
C669        C670   1.400       .  A
C669        H673   1.084       .  S
C670        O674   1.372       .  S
O672        H676   0.992       .  S
O674        H675   0.992       .  S
C677        C678   1.398   1_565  A
C677        C682   1.403       .  A
C678        C679   1.399       .  A
C678        H683   1.084       .  S
C679        C680   1.415       .  A
C679        O684   1.372       .  S
C680        C681   1.408   1_545  A
C681        C682   1.400       .  A
C681        H685   1.083       .  S
C682        O686   1.372       .  S
O684        H688   0.992       .  S
O686        H687   0.992       .  S
C689        C690   1.405   1_454  A
C690        C691   1.401       .  A
C690        H695   1.083       .  S
C691        C692   1.408   1_655  A
C691        O696   1.372       .  S
C693        C694   1.401       .  A
C693        H697   1.084       .  S
C694        O698   1.372       .  S
O696        H700   0.992       .  S
O698        H699   0.992       .  S
C701        C702   1.403   1_454  A
C702        C703   1.401       .  A
C702        H707   1.084       .  S
C703        C704   1.410   1_655  A
C703        O708   1.372       .  S
C705        C706   1.401       .  A
C705        H709   1.083       .  S
C706        O710   1.372       .  S
O708        H712   0.992       .  S
O710        H711   0.992       .  S
C713        C714   1.399   1_455  A
C713        C718   1.404       .  A
C714        C715   1.400       .  A
C714        H719   1.084       .  S
C715        C716   1.414   1_655  A
C715        O720   1.372       .  S
C716        C717   1.407       .  A
C717        C718   1.400       .  A
C717        H721   1.083       .  S
C718        O722   1.372       .  S
O720        H724   0.992       .  S
O722        H723   0.992       .  S
C725        C726   1.400   1_455  A
C725        C730   1.405       .  A
C726        C727   1.401       .  A
C726        H731   1.084       .  S
C727        C728   1.412   1_655  A
C727        O732   1.372       .  S
C728        C729   1.406       .  A
C729        C730   1.399       .  A
C729        H733   1.083       .  S
C730        O734   1.372       .  S
O732        H736   0.992       .  S
O734        H735   0.992       .  S
C737        C738   1.405       .  A
C737        C742   1.411       .  A
C738        C739   1.400       .  A
C738        H743   1.083       .  S
C739        C740   1.410       .  A
C739        O744   1.372       .  S
C740        C741   1.404       .  A
C741        C742   1.399       .  A
C741        H745   1.084       .  S
C742        O746   1.371       .  S
O744        H748   0.992       .  S
O746        H747   0.992       .  S
C749        C750   1.404       .  A
C749        C754   1.411       .  A
C750        C751   1.400       .  A
C750        H755   1.084       .  S
C751        C752   1.412       .  A
C751        O756   1.371       .  S
C752        C753   1.405       .  A
C753        C754   1.400       .  A
C753        H757   1.083       .  S
C754        O758   1.372       .  S
O756        H760   0.992       .  S
O758        H759   0.992       .  S
C761        C762   1.407       .  A
C761        C766   1.413       .  A
C762        C763   1.400       .  A
C762        H767   1.082       .  S
C763        C764   1.410       .  A
C763        O768   1.372       .  S
C764        C765   1.404       .  A
C765        C766   1.399       .  A
C765        H769   1.084       .  S
C766        O770   1.371       .  S
O768        H772   0.992       .  S
O770        H771   0.992       .  S
C773        C774   1.407       .  A
C773        C778   1.413       .  A
C774        C775   1.400       .  A
C774        H779   1.082       .  S
C775        C776   1.410       .  A
C775        O780   1.372       .  S
C776        C777   1.404       .  A
C777        C778   1.400       .  A
C777        H781   1.084       .  S
C778        O782   1.371       .  S
O780        H784   0.992       .  S
O782        H783   0.992       .  S
