geometry optimzed in LAMMPS
_audit_creation_date              2020-11-30 
_audit_creation_method            'lammps2cif' 
_symmetry_space_group_name_H-M    'P1' 
_symmetry_Int_Tables_number       1 
_symmetry_cell_setting            triclinic 
loop_ 
_symmetry_equiv_pos_as_xyz 
  x,y,z 
_cell_length_a                    42.87144248406983 
_cell_length_b                    42.72261306372511 
_cell_length_c                    42.74516146612153 
_cell_angle_alpha                 90.09985687714509 
_cell_angle_beta                  89.55062201432412 
_cell_angle_gamma                 90.06273115322934 
loop_ 
_atom_site_label 
_atom_site_type_symbol 
_atom_site_fract_x 
_atom_site_fract_y 
_atom_site_fract_z 
_atom_site_charge 
O1          O  0.58807778  0.34585383  0.48418100    -0.75160
O2          O  0.59266191  0.32184094  0.53148612    -0.54070
C3          C  0.59983574  0.34288957  0.51126669     0.78570
O4          O  0.44420926  0.35890439  0.48680682    -0.59760
O5          O  0.43031311  0.33170500  0.44326063    -0.52790
C6          C  0.42758349  0.35456484  0.46274498     0.70580
O7          O  0.51175306  0.35122473  0.55873032    -0.74320
O8          O  0.54767103  0.31580909  0.57469734    -0.54890
C9          C  0.53026495  0.34007311  0.57881711     0.76580
O10         O  0.52513367  0.34905952  0.40833911    -0.59470
O11         O  0.47561314  0.33111214  0.40115490    -0.52590
C12         C  0.49862524  0.34977004  0.39536633     0.73170
Zr13       Zr  0.54949734  0.32502240  0.45088139     2.54710
O14         O  0.56709081  0.37791688  0.43896319    -0.80030
O15         O  0.58966607  0.30885209  0.41356748    -0.93450
Zr16       Zr  0.48420819  0.33433980  0.51439024     2.64680
O17         O  0.49192751  0.39033668  0.52106206    -0.98400
O18         O  0.43771661  0.33121488  0.54742643    -0.80470
O19         O  0.53741573  0.32859931  0.50449418    -0.83820
O20         O  0.49653474  0.33386972  0.46149308    -2.18530
O21         O  0.52282214  0.24269541  0.39542824    -0.67210
O22         O  0.47230535  0.25802991  0.39488770    -0.51780
C23         C  0.49721774  0.24951752  0.38037952     0.71560
O24         O  0.48928921  0.24480168  0.57501885    -0.60120
O25         O  0.54116772  0.25484512  0.57819086    -0.52100
C26         C  0.51421612  0.25076480  0.59124261     0.73360
O27         O  0.41840884  0.25620771  0.50162917    -0.71520
O28         O  0.41715217  0.26993849  0.45046055    -0.50190
C29         C  0.40323360  0.26384667  0.47647706     0.74740
O30         O  0.59554292  0.23104737  0.47132483    -0.66850
O31         O  0.60083046  0.25128919  0.52045511    -0.54040
C32         C  0.61261684  0.23914433  0.49524351     0.73120
Zr33       Zr  0.53973008  0.23517164  0.45225382     2.77540
O34         O  0.52230773  0.18159872  0.46090091    -0.97590
O35         O  0.57050017  0.20101491  0.41839613    -0.78420
Zr36       Zr  0.47313089  0.24322823  0.51828400     2.70070
O37         O  0.47599679  0.18726609  0.50791299    -0.79660
O38         O  0.43506188  0.21633740  0.55137535    -0.98750
Zr39       Zr  0.55294953  0.28150835  0.52903756     2.21500
Zr40       Zr  0.46927892  0.29020689  0.44096711     2.11130
O41         O  0.48475528  0.24064629  0.46315544    -2.47430
O42         O  0.52780878  0.23584327  0.50770726    -0.79460
O43         O  0.52323150  0.28245059  0.42864020    -0.71650
O44         O  0.49854756  0.28819986  0.53854562    -2.32610
O45         O  0.56586928  0.27942701  0.47424529    -2.28820
O46         O  0.45736553  0.29087079  0.49510302    -0.73410
H47         H  0.49033239  0.35396908  0.45351497     0.78590
H48         H  0.49297540  0.29392632  0.55962167     0.79670
H49         H  0.47316416  0.22384906  0.45349889     0.81900
H50         H  0.58774246  0.28256693  0.47006796     0.79510
H51         H  0.43426033  0.30857703  0.55101935     0.42540
H52         H  0.42066483  0.23291653  0.55877725     0.41510
H53         H  0.48907232  0.17891761  0.52496674     0.41190
H54         H  0.51665622  0.17370866  0.43989814     0.39120
H55         H  0.57991521  0.21509688  0.40258398     0.42250
H56         H  0.58593169  0.28624687  0.41011098     0.37040
H57         H  0.55320562  0.39163192  0.45155064     0.43160
H58         H  0.49782320  0.39793034  0.49996503     0.39570
H59         H  0.54141108  0.16992935  0.46647406     0.44490
H60         H  0.60948051  0.30988759  0.42527812     0.43210
H61         H  0.47085196  0.39888383  0.52511174     0.43350
H62         H  0.42237611  0.20356294  0.53688779     0.43710
O63         O  0.58290129  0.52944467  0.30767112    -0.75160
O64         O  0.59218962  0.48117295  0.28694013    -0.54070
C65         C  0.59814266  0.50377262  0.30587054     0.78570
O66         O  0.43269927  0.53095299  0.30242217    -0.59760
O67         O  0.42547810  0.57218087  0.26960272    -0.52790
C68         C  0.41959781  0.55686576  0.29465751     0.70580
O69         O  0.51849677  0.47530611  0.31839583    -0.74320
O70         O  0.54496088  0.44023101  0.29024952    -0.54890
C71         C  0.52913299  0.44771033  0.31449650     0.76580
O72         O  0.51974754  0.60763399  0.26900781    -0.59470
O73         O  0.46866129  0.60770454  0.27001099    -0.52590
C74         C  0.49449410  0.61769210  0.28095867     0.73170
Zr75       Zr  0.54093244  0.55772569  0.28399159     2.54710
O76         O  0.53057236  0.56617493  0.33950727    -0.80030
O77         O  0.58012752  0.59876501  0.27709070    -0.93450
Zr78       Zr  0.47442600  0.49457588  0.28957087     2.64680
O79         O  0.45592548  0.48412037  0.34262721    -0.98400
O80         O  0.44359557  0.44661052  0.28792868    -0.80470
O81         O  0.52846169  0.50466346  0.28890311    -0.83820
O82         O  0.48684213  0.54812679  0.28430982    -2.18530
O83         O  0.53330565  0.60212184  0.19897097    -0.67210
O84         O  0.48108823  0.60478270  0.19792594    -0.51780
C85         C  0.50758254  0.61841548  0.19949639     0.71560
O86         O  0.49574795  0.42496845  0.20461945    -0.60120
O87         O  0.54302524  0.42190402  0.22803828    -0.52100
C88         C  0.51861149  0.40876519  0.21621412     0.73360
O89         O  0.42280772  0.49689464  0.20340478    -0.71520
O90         O  0.41893057  0.54965897  0.20782415    -0.50190
C91         C  0.40633396  0.52233703  0.20559547     0.74740
O92         O  0.60371235  0.52620214  0.20028046    -0.66850
O93         O  0.60305934  0.47780305  0.22202718    -0.54040
C94         C  0.61807176  0.50200396  0.21196142     0.73120
Zr95       Zr  0.54793446  0.54501162  0.19323782     2.77540
O96         O  0.54331087  0.53468721  0.13736343    -0.97590
O97         O  0.58239467  0.57756308  0.16149175    -0.78420
Zr98       Zr  0.47899405  0.48093488  0.19821638     2.70070
O99         O  0.48536038  0.48763749  0.14198725    -0.79660
O100        O  0.44731616  0.44237711  0.17077403    -0.98750
Zr101      Zr  0.55219231  0.47545353  0.24766678     2.21500
Zr102      Zr  0.46773117  0.56291640  0.23369203     2.11130
O103        O  0.49215410  0.53523849  0.19049863    -2.47430
O104        O  0.53452571  0.49033381  0.19689606    -0.79460
O105        O  0.52247878  0.57099336  0.23469311    -0.71650
O106        O  0.49700170  0.46548854  0.24835912    -2.32610
O107        O  0.56549959  0.52959768  0.24367381    -2.28820
O108        O  0.45538252  0.50884318  0.24024144    -0.73410
H109        H  0.47892793  0.56022694  0.30170552     0.78590
H110        H  0.49216868  0.44433210  0.25442683     0.79670
H111        H  0.48366244  0.54283806  0.17108917     0.81900
H112        H  0.58686408  0.53411823  0.24877148     0.79510
H113        H  0.45489401  0.43172917  0.30146866     0.42540
H114        H  0.43520453  0.43165465  0.18741351     0.41510
H115        H  0.49835682  0.46963609  0.13532813     0.41190
H116        H  0.54312223  0.51160225  0.13544715     0.39120
H117        H  0.59127567  0.59296045  0.17630222     0.42250
H118        H  0.59656853  0.58973116  0.26348896     0.37040
H119        H  0.52300222  0.54565330  0.34720845     0.43160
H120        H  0.45970497  0.50383407  0.35420901     0.39570
H121        H  0.52206150  0.54140141  0.13153924     0.44490
H122        H  0.59005879  0.60289195  0.29738931     0.43210
H123        H  0.43293318  0.48261544  0.34114118     0.43350
H124        H  0.43165635  0.45460920  0.15908783     0.43710
O125        O  0.53677417  0.68453987  0.41231221    -0.75160
O126        O  0.49328805  0.71194108  0.40066770    -0.54070
C127        C  0.51282233  0.68973941  0.39530853     0.78570
O128        O  0.51580405  0.71043445  0.57045122    -0.59760
O129        O  0.56152885  0.73632103  0.57607372    -0.52790
C130        C  0.53904284  0.71937005  0.58663720     0.70580
O131        O  0.44906919  0.69555939  0.49088721    -0.74320
O132        O  0.44348688  0.71966823  0.44358539    -0.54890
C133        C  0.43467702  0.70111130  0.46523060     0.76580
O134        O  0.60934182  0.70224164  0.48680883    -0.59470
O135        O  0.61353674  0.73170161  0.53102316    -0.52590
C136        C  0.62399500  0.71200038  0.51102025     0.73170
Zr137      Zr  0.56195571  0.70741948  0.45758130     2.54710
O138        O  0.56662256  0.65124457  0.46553367    -0.80030
O139        O  0.60525023  0.70799431  0.42037830    -0.93450
Zr140      Zr  0.49502097  0.71306207  0.51875695     2.64680
O141        O  0.50116991  0.65667982  0.52441626    -0.98400
O142        O  0.44929849  0.71316889  0.55292792    -0.80470
O143        O  0.50757569  0.70702814  0.46556716    -0.83820
O144        O  0.54945578  0.71272853  0.51115942    -2.18530
O145        O  0.61647015  0.79031694  0.46270132    -0.67210
O146        O  0.61774195  0.78819752  0.51544159    -0.51780
C147        C  0.63182731  0.78771919  0.48871803     0.71560
O148        O  0.43772802  0.80406995  0.49191266    -0.60120
O149        O  0.43726710  0.77823163  0.44520241    -0.52100
C150        C  0.42322622  0.79219262  0.46811191     0.73360
O151        O  0.50662727  0.80280211  0.56733839    -0.71520
O152        O  0.55873809  0.79853900  0.57014499    -0.50190
C153        C  0.53208219  0.80123958  0.58356241     0.74740
O154        O  0.54247544  0.79277291  0.38929453    -0.66850
O155        O  0.49145181  0.78022529  0.39178884    -0.54040
C156        C  0.51639160  0.78466244  0.37599995     0.73120
Zr157      Zr  0.56128344  0.79983154  0.44499176     2.77540
O158        O  0.55635743  0.85629989  0.45118708    -0.97590
O159        O  0.59725929  0.82411641  0.40791251    -0.78420
Zr160      Zr  0.49304042  0.80656002  0.51043402     2.70070
O161        O  0.50561195  0.86101458  0.49925665    -0.79660
O162        O  0.45752565  0.83937135  0.54083801    -0.98750
Zr163      Zr  0.48777249  0.75238232  0.44023892     2.21500
Zr164      Zr  0.56782211  0.76333787  0.52675314     2.11130
O165        O  0.54819974  0.80817969  0.49960678    -2.47430
O166        O  0.50623713  0.80264408  0.45562526    -0.79460
O167        O  0.58039489  0.75665222  0.47312985    -0.71650
O168        O  0.47460780  0.75687914  0.49387729    -2.32610
O169        O  0.54209897  0.74999876  0.42921618    -2.28820
O170        O  0.51331013  0.76230259  0.53632902    -0.73410
H171        H  0.55889380  0.69624207  0.52328186     0.78590
H172        H  0.45286600  0.75355124  0.49813501     0.79670
H173        H  0.55766518  0.82706753  0.50761476     0.81900
H174        H  0.54693156  0.74410332  0.40795899     0.79510
H175        H  0.44047878  0.69179113  0.55146096     0.42540
H176        H  0.44849727  0.82517614  0.55681268     0.41510
H177        H  0.49113845  0.86690272  0.48231992     0.41190
H178        H  0.57785564  0.86379527  0.45502409     0.39120
H179        H  0.60530191  0.80652777  0.39508031     0.42250
H180        H  0.59589766  0.71285534  0.39986230     0.37040
H181        H  0.54891348  0.64585288  0.47950931     0.43160
H182        H  0.51781764  0.65407157  0.54011902     0.39570
H183        H  0.55123366  0.86411554  0.43004972     0.44490
H184        H  0.61219411  0.68595648  0.41884717     0.43210
H185        H  0.48190559  0.64971013  0.53526812     0.43350
H186        H  0.47113697  0.85369507  0.55282746     0.43710
O187        O  0.67205530  0.46413417  0.50891683    -0.75160
O188        O  0.69616136  0.44347561  0.46581780    -0.54070
C189        C  0.67463736  0.44402990  0.48705228     0.78570
O190        O  0.70704655  0.61190950  0.47888099    -0.59760
O191        O  0.73842488  0.61796200  0.52131981    -0.52790
C192        C  0.71855154  0.62794866  0.50145535     0.70580
O193        O  0.68555665  0.52783196  0.41699050    -0.74320
O194        O  0.70376291  0.47799213  0.41248954    -0.54890
C195        C  0.68630881  0.50055772  0.40410317     0.76580
O196        O  0.68772015  0.54848496  0.56545439    -0.59470
O197        O  0.72576636  0.58583351  0.56695842    -0.52590
C198        C  0.69918830  0.57468896  0.57482801     0.73170
Zr199      Zr  0.70101401  0.50619035  0.52961969     2.54710
O200        O  0.64525983  0.51080526  0.53892797    -0.80030
O201        O  0.70413415  0.47471567  0.57691234    -0.93450
Zr202      Zr  0.71061212  0.56028532  0.45616015     2.64680
O203        O  0.65553067  0.57431074  0.45616586    -0.98400
O204        O  0.71968749  0.59209140  0.40975012    -0.80470
O205        O  0.69972718  0.50947874  0.47430702    -0.83820
O206        O  0.71123035  0.55613315  0.51035203    -2.18530
O207        O  0.78782912  0.50428070  0.58114600    -0.67210
O208        O  0.78304183  0.55725899  0.58074582    -0.51780
C209        C  0.78637617  0.53122916  0.59547046     0.71560
O210        O  0.79584705  0.52039739  0.39978859    -0.60120
O211        O  0.76493001  0.47671831  0.40121336    -0.52100
C212        C  0.78124854  0.49745118  0.38624981     0.73360
O213        O  0.80152207  0.60102887  0.46617679    -0.71520
O214        O  0.80439019  0.60251590  0.51811903    -0.50190
C215        C  0.80351132  0.61689737  0.49216795     0.74740
O216        O  0.78085370  0.42621045  0.51032178    -0.66850
O217        O  0.76160202  0.42544082  0.46110696    -0.54040
C218        C  0.77079846  0.41115670  0.48581078     0.73120
Zr219      Zr  0.79037544  0.48276078  0.52616477     2.77540
O220        O  0.84670747  0.48347400  0.51850619    -0.97590
O221        O  0.81103075  0.44569598  0.56391975    -0.78420
Zr222      Zr  0.80141334  0.54289863  0.45358631     2.70070
O223        O  0.85517638  0.52852163  0.46444410    -0.79660
O224        O  0.83504770  0.56856691  0.41523463    -0.98750
Zr225      Zr  0.74053365  0.47721826  0.45380103     2.21500
Zr226      Zr  0.76223039  0.56752235  0.52883424     2.11130
O227        O  0.80348964  0.53506129  0.50925842    -2.47430
O228        O  0.79225025  0.48955035  0.47026913    -0.79460
O229        O  0.75139752  0.51637942  0.54714874    -0.71650
O230        O  0.75039258  0.52922976  0.43618340    -2.32610
O231        O  0.73908476  0.47113991  0.50936535    -2.28820
O232        O  0.76089482  0.57446256  0.47358922    -0.73410
H233        H  0.69539016  0.57073862  0.51679647     0.78590
H234        H  0.74635461  0.53248308  0.41433443     0.79670
H235        H  0.82325054  0.54172994  0.51771370     0.81900
H236        H  0.73238143  0.45053553  0.51571463     0.79510
H237        H  0.69947592  0.59198460  0.39869467     0.42540
H238        H  0.82112527  0.58328448  0.40418510     0.41510
H239        H  0.85875264  0.50936605  0.45185271     0.41190
H240        H  0.85525966  0.48787595  0.53951157     0.39120
H241        H  0.79306295  0.44051911  0.57766895     0.42250
H242        H  0.69923810  0.45315602  0.56995827     0.37040
H243        H  0.63757454  0.52239752  0.52048644     0.43160
H244        H  0.65029182  0.57867819  0.47834615     0.39570
H245        H  0.85232724  0.46138959  0.51426115     0.44490
H246        H  0.68574569  0.48112984  0.58953091     0.43210
H247        H  0.65471808  0.59499156  0.44578989     0.43350
H248        H  0.84898701  0.58219171  0.42764371     0.43710
O249        O  0.46276168  0.53245606  0.64542169    -0.75160
O250        O  0.45581294  0.48591278  0.67082681    -0.54070
C251        C  0.44992364  0.50539436  0.64894331     0.78570
O252        O  0.61222423  0.53955434  0.66484898    -0.59760
O253        O  0.61144551  0.58409911  0.69447222    -0.52790
C254        C  0.62170532  0.56700647  0.67193460     0.70580
O255        O  0.55384937  0.45579310  0.66186441    -0.74320
O256        O  0.50673514  0.44409502  0.68379687    -0.54890
C257        C  0.53089500  0.43745006  0.66686811     0.76580
O258        O  0.52480136  0.61702129  0.67016412    -0.59470
O259        O  0.56684825  0.62602761  0.70118917    -0.52590
C260        C  0.54673090  0.63454382  0.68100418     0.73170
Zr261      Zr  0.50125877  0.56530348  0.67179901     2.54710
O262        O  0.51429060  0.57204304  0.61669366    -0.80030
O263        O  0.45699575  0.60052615  0.66619283    -0.93450
Zr264      Zr  0.57021807  0.50584938  0.68009507     2.64680
O265        O  0.57567741  0.50214943  0.62342730    -0.98400
O266        O  0.61699295  0.47519008  0.68947940    -0.80470
O267        O  0.51624375  0.51222276  0.67154816    -0.83820
O268        O  0.55472899  0.55866213  0.67953073    -2.18530
O269        O  0.50016691  0.62031637  0.75668049    -0.67210
O270        O  0.55241680  0.62565877  0.75788701    -0.51780
C271        C  0.52500904  0.63783351  0.75629564     0.71560
O272        O  0.53838884  0.44315950  0.76771569    -0.60120
O273        O  0.48912301  0.44470042  0.74955433    -0.52100
C274        C  0.51315404  0.42919740  0.75805629     0.73360
O275        O  0.61217777  0.51764198  0.76991196    -0.71520
O276        O  0.61477218  0.56980744  0.76115940    -0.50190
C277        C  0.62816449  0.54338842  0.76673396     0.74740
O278        O  0.43342520  0.53939308  0.75791647    -0.66850
O279        O  0.43557345  0.49280602  0.73234875    -0.54040
C280        C  0.42001514  0.51496247  0.74569260     0.73120
Zr281      Zr  0.48661379  0.56323034  0.76375746     2.77540
O282        O  0.48646998  0.56133120  0.82076021    -0.97590
O283        O  0.44481008  0.59609825  0.78421205    -0.78420
Zr284      Zr  0.55602876  0.50000890  0.77219028     2.70070
O285        O  0.54380427  0.51192688  0.82663455    -0.79660
O286        O  0.58448296  0.46439774  0.80600757    -0.98750
Zr287      Zr  0.48991373  0.48889100  0.71484695     2.21500
Zr288      Zr  0.56785955  0.57820867  0.73025368     2.11130
O289        O  0.54126747  0.55456356  0.77396868    -2.47430
O290        O  0.50112847  0.50894999  0.76577345    -0.79460
O291        O  0.51364175  0.58583441  0.72141161    -0.71650
O292        O  0.54439999  0.48047537  0.72175873    -2.32610
O293        O  0.47401577  0.54236363  0.71361656    -2.28820
O294        O  0.58279124  0.52475238  0.73008409    -0.73410
H295        H  0.56421440  0.57017414  0.66256432     0.78590
H296        H  0.55107584  0.45909493  0.71953925     0.79670
H297        H  0.54792867  0.56444464  0.79312106     0.81900
H298        H  0.45263236  0.54525688  0.70748116     0.79510
H299        H  0.61212193  0.46323758  0.70872142     0.42540
H300        H  0.60056225  0.45483705  0.79230124     0.41510
H301        H  0.52996742  0.49461140  0.83342922     0.41190
H302        H  0.48843204  0.53887463  0.82597891     0.39120
H303        H  0.43331947  0.60308925  0.76547047     0.42250
H304        H  0.43830457  0.58695728  0.66757014     0.37040
H305        H  0.52195543  0.55124832  0.60989838     0.43160
H306        H  0.57524906  0.52407779  0.61597470     0.39570
H307        H  0.50630101  0.57099137  0.82749404     0.44490
H308        H  0.45786457  0.60726477  0.64404967     0.43210
H309        H  0.59746331  0.49526460  0.61983421     0.43350
H310        H  0.59625849  0.47804777  0.82045519     0.43710
O311        O  0.33664490  0.45354670  0.46673078    -0.75160
O312        O  0.31927766  0.44545591  0.51675804    -0.54070
C313        C  0.33579552  0.43863158  0.49239018     0.78570
O314        O  0.33665658  0.61266958  0.49213213    -0.59760
O315        O  0.31045310  0.61886393  0.44631133    -0.52790
C316        C  0.32977845  0.62751841  0.46723447     0.70580
O317        O  0.35360989  0.52947806  0.55128105    -0.74320
O318        O  0.32524864  0.48541233  0.56170635    -0.54890
C319        C  0.34907272  0.50339521  0.56532430     0.76580
O320        O  0.34215706  0.53419946  0.40533595    -0.59470
O321        O  0.31455477  0.57955655  0.40181260    -0.52590
C322        C  0.33716858  0.56138332  0.39382455     0.73170
Zr323      Zr  0.32238013  0.50257676  0.44753654     2.54710
O324        O  0.37830741  0.49674445  0.45420047    -0.80030
O325        O  0.31992875  0.46986890  0.40092962    -0.93450
Zr326      Zr  0.32597000  0.56360652  0.51628529     2.64680
O327        O  0.38211131  0.57273464  0.51558829    -0.98400
O328        O  0.32095527  0.59643239  0.56274038    -0.80470
O329        O  0.32612270  0.51058485  0.50180051    -0.83820
O330        O  0.32341513  0.55522795  0.46221737    -2.18530
O331        O  0.23973316  0.51441647  0.39662619    -0.67210
O332        O  0.24962831  0.56626138  0.39407159    -0.51780
C333        C  0.24525447  0.53982867  0.38055615     0.71560
O334        O  0.23636357  0.54326434  0.57646150    -0.60120
O335        O  0.25755046  0.49421580  0.57720296    -0.52100
C336        C  0.24594391  0.51839113  0.59115838     0.73360
O337        O  0.24361437  0.62140857  0.50467684    -0.71520
O338        O  0.24241749  0.61988056  0.45216607    -0.50190
C339        C  0.24441053  0.63557124  0.47758649     0.74740
O340        O  0.22838891  0.44405027  0.47289399    -0.66850
O341        O  0.25201994  0.43965855  0.52024100    -0.54040
C342        C  0.23750049  0.42775193  0.49685375     0.73120
Zr343      Zr  0.23044581  0.49950291  0.45331691     2.77540
O344        O  0.17582758  0.51387523  0.45996214    -0.97590
O345        O  0.20081583  0.46465091  0.41952910    -0.78420
Zr346      Zr  0.23457558  0.56463281  0.52174517     2.70070
O347        O  0.17869996  0.55993925  0.51314797    -0.79660
O348        O  0.20891359  0.59856044  0.55987680    -0.98750
Zr349      Zr  0.28167389  0.48762199  0.52562328     2.21500
Zr350      Zr  0.27562703  0.57537724  0.44336169     2.11130
O351        O  0.22917499  0.55416686  0.46666716    -2.47430
O352        O  0.23300035  0.50953572  0.50871620    -0.79460
O353        O  0.27508765  0.52187460  0.42983401    -0.71650
O354        O  0.28218248  0.54179977  0.54007205    -2.32610
O355        O  0.27838003  0.47838564  0.47058160    -2.28820
O356        O  0.27939642  0.58620374  0.49799704    -0.73410
H357        H  0.34128623  0.56573443  0.45352824     0.78590
H358        H  0.28737783  0.54526672  0.56168177     0.79670
H359        H  0.21097872  0.56433332  0.45821855     0.81900
H360        H  0.28020236  0.45660086  0.46507700     0.79510
H361        H  0.33185453  0.58474567  0.57938114     0.42540
H362        H  0.22608517  0.61071971  0.56939864     0.41510
H363        H  0.17207184  0.54255452  0.52698089     0.41190
H364        H  0.16827504  0.51774109  0.43848218     0.39120
H365        H  0.21683930  0.45241253  0.40804094     0.42250
H366        H  0.30426365  0.45359651  0.40612448     0.37040
H367        H  0.38362181  0.51122892  0.47146681     0.43160
H368        H  0.38752114  0.57701885  0.49345424     0.39570
H369        H  0.16531202  0.49428972  0.46654018     0.44490
H370        H  0.34008370  0.45857077  0.40048228     0.43210
H371        H  0.38500660  0.59301569  0.52644090     0.43350
H372        H  0.19725558  0.61401937  0.54731820     0.43710
O373        O  0.84436818  0.61248276  0.00422307    -0.75160
O374        O  0.81526744  0.62468339  0.96154854    -0.54070
C375        C  0.83610768  0.63086624  0.98201799     0.78570
O376        O  0.85278779  0.46018920  0.98718406    -0.59760
O377        O  0.82097216  0.44614177  0.02776201    -0.52790
C378        C  0.84466124  0.44214089  0.00952800     0.70580
O379        O  0.85545337  0.55269730  0.94058542    -0.74320
O380        O  0.82209061  0.57682453  0.90953601    -0.54890
C381        C  0.84817537  0.56334768  0.91384419     0.76580
O382        O  0.83005755  0.53897272  0.07931376    -0.59470
O383        O  0.80931379  0.49003515  0.07958773    -0.52590
C384        C  0.82320263  0.51289109  0.09266405     0.73170
Zr385      Zr  0.82903076  0.56379696  0.02861921     2.54710
O386        O  0.88521083  0.55558822  0.02964038    -0.80030
O387        O  0.83452298  0.60308812  0.06962962    -0.93450
Zr388      Zr  0.83379470  0.50454817  0.96003202     2.64680
O389        O  0.88751051  0.49230277  0.94550419    -0.98400
O390        O  0.83049178  0.47641076  0.91049124    -0.80470
O391        O  0.83165662  0.55774225  0.97421434    -0.83820
O392        O  0.83167149  0.51067576  0.01508309    -2.18530
O393        O  0.74166392  0.54552411  0.07940350    -0.67210
O394        O  0.75274827  0.49373190  0.07919114    -0.51780
C395        C  0.74701687  0.51939392  0.09398292     0.71560
O396        O  0.74125174  0.52167039  0.90140972    -0.60120
O397        O  0.76163340  0.57107453  0.90040996    -0.52100
C398        C  0.75012753  0.54675342  0.88673786     0.73360
O399        O  0.75056264  0.44291783  0.96903643    -0.71520
O400        O  0.75407950  0.44169293  0.02135629    -0.50190
C401        C  0.75286349  0.42744795  0.99515760     0.74740
O402        O  0.73861008  0.62228380  0.00900345    -0.66850
O403        O  0.75362923  0.62473095  0.95819397    -0.54040
C404        C  0.74704566  0.63816349  0.98427641     0.73120
Zr405      Zr  0.73591527  0.56481791  0.02412739     2.77540
O406        O  0.68140967  0.55322829  0.01342488    -0.97590
O407        O  0.70497117  0.59688716  0.05983631    -0.78420
Zr408      Zr  0.74124098  0.49985262  0.95532590     2.70070
O409        O  0.68542621  0.50152637  0.96612293    -0.79660
O410        O  0.71637941  0.46692872  0.91611549    -0.98750
Zr411      Zr  0.78487519  0.57807643  0.95181337     2.21500
Zr412      Zr  0.78299056  0.48863786  0.03116003     2.11130
O413        O  0.73593293  0.50991211  0.01031450    -2.47430
O414        O  0.73694620  0.55479489  0.96874746    -0.79460
O415        O  0.78135926  0.54228278  0.04531566    -0.71650
O416        O  0.78828042  0.52392050  0.93727342    -2.32610
O417        O  0.78416213  0.58622313  0.00710924    -2.28820
O418        O  0.78749677  0.47909560  0.97667164    -0.73410
H419        H  0.84924799  0.50183621  0.02589027     0.78590
H420        H  0.79284629  0.52100406  0.91537689     0.79670
H421        H  0.71801465  0.49927798  0.01912031     0.81900
H422        H  0.78748616  0.60753932  0.01352873     0.79510
H423        H  0.81530506  0.45939767  0.91456854     0.42540
H424        H  0.73364521  0.45458803  0.90676883     0.41510
H425        H  0.67736981  0.51750559  0.95151642     0.41190
H426        H  0.67243468  0.54697662  0.03389706     0.39120
H427        H  0.72011293  0.61169459  0.06910386     0.42250
H428        H  0.81918459  0.61954935  0.06442033     0.37040
H429        H  0.89158661  0.55519946  0.00732492     0.43160
H430        H  0.90026173  0.50746998  0.95742475     0.39570
H431        H  0.67187221  0.57381210  0.00891035     0.44490
H432        H  0.85514403  0.61288715  0.06581993     0.43210
H433        H  0.88972580  0.49901315  0.92343853     0.43350
H434        H  0.70393487  0.45148374  0.92814201     0.43710
O435        O  0.01349442  0.46566075  0.82884235    -0.75160
O436        O  0.97057100  0.45965229  0.79800481    -0.54070
C437        C  0.98664215  0.45378719  0.82222447     0.78570
O438        O  0.02755348  0.61732518  0.81497768    -0.59760
O439        O  0.07747748  0.61072037  0.79847057    -0.52790
C440        C  0.05661797  0.62367221  0.81596924     0.70580
O441        O  0.94531973  0.56189753  0.80991413    -0.74320
O442        O  0.94116565  0.50961569  0.80275453    -0.54890
C443        C  0.93289267  0.53557152  0.81578225     0.76580
O444        O  0.09439799  0.53399856  0.78951467    -0.59470
O445        O  0.12480740  0.57094311  0.77794036    -0.52590
C446        C  0.12080901  0.54630545  0.79378612     0.73170
Zr447      Zr  0.05450148  0.49868930  0.80549809     2.54710
O448        O  0.07355079  0.50177958  0.85895861    -0.80030
O449        O  0.08857858  0.45329442  0.80771047    -0.93450
Zr450      Zr  0.99933435  0.57062761  0.80356741     2.64680
O451        O  0.00210905  0.54443256  0.85435504    -0.98400
O452        O  0.96992456  0.61402323  0.82600051    -0.80470
O453        O  0.00228749  0.51608847  0.80573705    -0.83820
O454        O  0.05161904  0.55428921  0.80468521    -2.18530
O455        O  0.10980387  0.50583397  0.71726853    -0.67210
O456        O  0.11600599  0.55818231  0.72130339    -0.51780
C457        C  0.12733965  0.53056147  0.71852742     0.71560
O458        O  0.93771308  0.55582501  0.70997369    -0.60120
O459        O  0.93000440  0.50757151  0.73164832    -0.52100
C460        C  0.91972596  0.53288064  0.71934857     0.73360
O461        O  0.01476018  0.62468307  0.72090649    -0.71520
O462        O  0.06677719  0.62275827  0.72830235    -0.50190
C463        C  0.04143034  0.63841359  0.72578469     0.74740
O464        O  0.02871006  0.44196431  0.71472154    -0.66850
O465        O  0.98027317  0.44489692  0.73714461    -0.54040
C466        C  0.00318180  0.42910091  0.72521120     0.73120
Zr467      Zr  0.05263935  0.49569545  0.71234157     2.77540
O468        O  0.04566640  0.50572068  0.65679029    -0.97590
O469        O  0.08377930  0.45644440  0.68499213    -0.78420
Zr470      Zr  0.99547986  0.56995757  0.71023522     2.70070
O471        O  0.00928837  0.56394068  0.65518713    -0.79660
O472        O  0.96418038  0.60665608  0.68023563    -0.98750
Zr473      Zr  0.97767432  0.49796708  0.75950536     2.21500
Zr474      Zr  0.07304650  0.57312501  0.75513660     2.11130
O475        O  0.04878273  0.55211633  0.70874152    -2.47430
O476        O  0.99962888  0.51375380  0.71045841    -0.79460
O477        O  0.07646846  0.51641209  0.75749210    -0.71650
O478        O  0.97362323  0.55345539  0.75800242    -2.32610
O479        O  0.03009413  0.47914865  0.76075855    -2.28820
O480        O  0.02006175  0.58931088  0.75595911    -0.73410
H481        H  0.06156600  0.56242864  0.82318652     0.78590
H482        H  0.95279041  0.56151101  0.75911008     0.79670
H483        H  0.05948135  0.55974546  0.69029307     0.81900
H484        H  0.03166199  0.45733407  0.76538221     0.79510
H485        H  0.96272996  0.62617806  0.80771682     0.42540
H486        H  0.95444184  0.62050043  0.69613509     0.41510
H487        H  0.99271756  0.55030914  0.64661674     0.41190
H488        H  0.06709467  0.50815202  0.64832111     0.39120
H489        H  0.09464213  0.44490449  0.70176121     0.42250
H490        H  0.09037846  0.44606115  0.78577524     0.37040
H491        H  0.08790344  0.51995248  0.85897332     0.43160
H492        H  0.02402662  0.53818058  0.85762002     0.39570
H493        H  0.03822246  0.48558419  0.64808992     0.44490
H494        H  0.07613185  0.43698199  0.81849018     0.43210
H495        H  0.99790073  0.56033647  0.87057706     0.43350
H496        H  0.97943934  0.62019772  0.66919489     0.43710
O497        O  0.18542823  0.44120686  0.98712424    -0.75160
O498        O  0.21364430  0.42933033  0.94303207    -0.54070
C499        C  0.19229806  0.42391604  0.96379417     0.78570
O500        O  0.19028273  0.59270102  0.97320172    -0.59760
O501        O  0.21266139  0.60215759  0.02025063    -0.52790
C502        C  0.19260048  0.60761343  0.99874539     0.70580
O503        O  0.18557865  0.50709036  0.91707711    -0.74320
O504        O  0.22013676  0.47823842  0.89106945    -0.54890
C505        C  0.19602162  0.49589188  0.89138339     0.76580
O506        O  0.18435987  0.51626964  0.05558488    -0.59470
O507        O  0.21391628  0.55948873  0.06600611    -0.52590
C508        C  0.19188301  0.53997987  0.07198786     0.73170
Zr509      Zr  0.20138516  0.48860134  0.01060852     2.54710
O510        O  0.14542878  0.49427366  0.00316881    -0.80030
O511        O  0.19464737  0.45204917  0.05390781    -0.93450
Zr512      Zr  0.20962182  0.55012412  0.94473755     2.64680
O513        O  0.15871533  0.56652861  0.92559611    -0.98400
O514        O  0.22674913  0.58503344  0.90275641    -0.80470
O515        O  0.20472223  0.49653691  0.95639563    -0.83820
O516        O  0.20451855  0.54161960  0.99907949    -2.18530
O517        O  0.28180958  0.49778483  0.07272372    -0.67210
O518        O  0.27517995  0.55041393  0.07352799    -0.51780
C519        C  0.27749847  0.52391560  0.08779921     0.71560
O520        O  0.30300906  0.52782831  0.89478129    -0.60120
O521        O  0.28274286  0.47849736  0.89034429    -0.52100
C522        C  0.29432787  0.50374102  0.87838954     0.73360
O523        O  0.29951964  0.60360957  0.96521476    -0.71520
O524        O  0.28181353  0.60817231  0.01531595    -0.50190
C525        C  0.29330284  0.62024845  0.99003049     0.74740
O526        O  0.29039425  0.42497805  0.00025401    -0.66850
O527        O  0.28040462  0.42483169  0.94811899    -0.54040
C528        C  0.28473797  0.41045033  0.97418196     0.73120
Zr529      Zr  0.29299771  0.48139606  0.01711504     2.77540
O530        O  0.34894028  0.49072657  0.01360917    -0.97590
O531        O  0.31807935  0.44589238  0.05359338    -0.78420
Zr532      Zr  0.30120755  0.54641969  0.95020086     2.70070
O533        O  0.35489000  0.53573762  0.96480729    -0.79660
O534        O  0.33437888  0.57645168  0.91470716    -0.98750
Zr535      Zr  0.25144093  0.47215219  0.93813709     2.21500
Zr536      Zr  0.25099405  0.56061359  0.02307864     2.11130
O537        O  0.29855223  0.53631961  0.00549680    -2.47430
O538        O  0.29853106  0.49128435  0.96186485    -0.79460
O539        O  0.24702767  0.50645006  0.03490814    -0.71650
O540        O  0.25478794  0.52676328  0.92648154    -2.32610
O541        O  0.24648147  0.46334902  0.99311236    -2.28820
O542        O  0.25494222  0.57097766  0.96841743    -0.73410
H543        H  0.18542838  0.55009386  0.00765778     0.78590
H544        H  0.25173037  0.53086714  0.90463589     0.79670
H545        H  0.31618820  0.54532653  0.01620732     0.81900
H546        H  0.24133234  0.44206267  0.99811615     0.79510
H547        H  0.24959724  0.58707643  0.90521491     0.42540
H548        H  0.31995900  0.59082475  0.90386260     0.41510
H549        H  0.36212867  0.52000413  0.94934774     0.41190
H550        H  0.35542966  0.49508286  0.03536901     0.39120
H551        H  0.30077691  0.43326018  0.06241834     0.42250
H552        H  0.19805527  0.43097805  0.04490902     0.37040
H553        H  0.14350636  0.50661671  0.98369320     0.43160
H554        H  0.14418580  0.56362009  0.94347574     0.39570
H555        H  0.35808041  0.47002273  0.00861010     0.44490
H556        H  0.17204474  0.45265056  0.05883006     0.43210
H557        H  0.16025561  0.58945892  0.92272919     0.43350
H558        H  0.34711602  0.59016102  0.92826741     0.43710
O559        O  0.01021229  0.59003027  0.15805554    -0.75160
O560        O  0.96472340  0.59271102  0.18595558    -0.54070
C561        C  0.98415888  0.60287100  0.16531254     0.78570
O562        O  0.01445494  0.42994300  0.15897145    -0.59760
O563        O  0.06247729  0.42729070  0.18134972    -0.52790
C564        C  0.04103595  0.41682552  0.16350965     0.70580
O565        O  0.93154723  0.49538166  0.16557115    -0.74320
O566        O  0.92153337  0.53928681  0.19415042    -0.54890
C567        C  0.91326865  0.51687763  0.17628740     0.76580
O568        O  0.09555002  0.53412247  0.18211208    -0.59470
O569        O  0.10158050  0.48270132  0.17736752    -0.52590
C570        C  0.10892228  0.51076423  0.16947633     0.73170
Zr571      Zr  0.04236066  0.54543417  0.17056977     2.54710
O572        O  0.04498948  0.53061904  0.11552332    -0.80030
O573        O  0.07278783  0.59051606  0.15275000    -0.93450
Zr574      Zr  0.98486927  0.47684779  0.17066854     2.64680
O575        O  0.98902420  0.48867338  0.11511258    -0.98400
O576        O  0.95016893  0.43423052  0.15589870    -0.80470
O577        O  0.98909764  0.53173105  0.17181201    -0.83820
O578        O  0.03791904  0.49058039  0.16865199    -2.18530
O579        O  0.10075267  0.52921337  0.26215271    -0.67210
O580        O  0.10746287  0.47912045  0.24612292    -0.51780
C581        C  0.11829816  0.50520531  0.25618929     0.71560
O582        O  0.92761429  0.48663224  0.26732988    -0.60120
O583        O  0.92140465  0.53697917  0.25119824    -0.52100
C584        C  0.91013965  0.51044736  0.26030571     0.73360
O585        O  0.00244560  0.41929129  0.25405692    -0.71520
O586        O  0.05344170  0.41924945  0.23908290    -0.50190
C587        C  0.02777379  0.40487176  0.24589974     0.74740
O588        O  0.02559087  0.59919797  0.26388796    -0.66850
O589        O  0.97472034  0.59748500  0.24959728    -0.54040
C590        C  0.99981354  0.61271391  0.25610622     0.73120
Zr591      Zr  0.04490240  0.54447407  0.26481681     2.77540
O592        O  0.03555442  0.53539565  0.32027507    -0.97590
O593        O  0.08000729  0.58044506  0.29138907    -0.78420
Zr594      Zr  0.98507665  0.47364044  0.26525149     2.70070
O595        O  0.99925295  0.47986829  0.31994129    -0.79660
O596        O  0.95720123  0.43468598  0.29631496    -0.98750
Zr597      Zr  0.96879273  0.54859584  0.22128479     2.21500
Zr598      Zr  0.06063753  0.47112409  0.21608674     2.11130
O599        O  0.03912954  0.48863905  0.26520998    -2.47430
O600        O  0.99109491  0.52940313  0.26859455    -0.79460
O601        O  0.06627231  0.52649138  0.21694223    -0.71650
O602        O  0.96366157  0.49329953  0.21878952    -2.32610
O603        O  0.02185161  0.56360757  0.21776613    -2.28820
O604        O  0.00707647  0.45670473  0.21691281    -0.73410
H605        H  0.04795135  0.48206107  0.15020834     0.78590
H606        H  0.94269696  0.48597790  0.21739546     0.79670
H607        H  0.05016029  0.47935820  0.28249291     0.81900
H608        H  0.02456726  0.58545010  0.21350196     0.79510
H609        H  0.93533567  0.43216688  0.17363442     0.42540
H610        H  0.94205223  0.42526247  0.28171912     0.41510
H611        H  0.98260267  0.49326519  0.32892986     0.41190
H612        H  0.05635975  0.53040842  0.32882954     0.39120
H613        H  0.09352977  0.58906545  0.27459582     0.42250
H614        H  0.06653642  0.60826472  0.16625981     0.37040
H615        H  0.03193251  0.54635021  0.10481085     0.43160
H616        H  0.00027991  0.47054565  0.10602416     0.39570
H617        H  0.03047748  0.55630546  0.32893384     0.44490
H618        H  0.06451688  0.59581026  0.13184814     0.43210
H619        H  0.96745586  0.48656325  0.10725390     0.43350
H620        H  0.94425816  0.44673797  0.31135792     0.43710
O621        O  0.95462559  0.35490561  0.96955834    -0.75160
O622        O  0.91810273  0.32533932  0.94915898    -0.54070
C623        C  0.92589829  0.35001026  0.96433182     0.78570
O624        O  0.08942915  0.32622280  0.95511782    -0.59760
O625        O  0.09227677  0.31618666  0.00679467    -0.52790
C626        C  0.10191543  0.32999530  0.98190843     0.70580
O627        O  0.99827319  0.35299739  0.90801493    -0.74320
O628        O  0.95217140  0.32746022  0.90029941    -0.54890
C629        C  0.97090288  0.35050791  0.89647707     0.76580
O630        O  0.01216240  0.33827393  0.05599788    -0.59470
O631        O  0.05571733  0.30804026  0.05865517    -0.52590
C632        C  0.03685377  0.32858843  0.06947669     0.73170
Zr633      Zr  0.97900893  0.32823760  0.01214105     2.54710
O634        O  0.97788998  0.38198510  0.03089438    -0.80030
O635        O  0.93306533  0.32826070  0.04621387    -0.93450
Zr636      Zr  0.03558388  0.32640736  0.94015464     2.64680
O637        O  0.03863217  0.38327174  0.93814213    -0.98400
O638        O  0.06391004  0.32397907  0.89054621    -0.80470
O639        O  0.98426340  0.32751457  0.95764963    -0.83820
O640        O  0.03153201  0.32708248  0.99550832    -2.18530
O641        O  0.99304023  0.24202802  0.06395552    -0.67210
O642        O  0.04547061  0.24756966  0.06036336    -0.51780
C643        C  0.02036567  0.24465189  0.07686275     0.71560
O644        O  0.00871318  0.23788917  0.88212269    -0.60120
O645        O  0.96151712  0.26239944  0.88281915    -0.52100
C646        C  0.98479783  0.24971228  0.86788549     0.73360
O647        O  0.08853069  0.24284046  0.94611469    -0.71520
O648        O  0.09689150  0.24783164  0.99811552    -0.50190
C649        C  0.10719728  0.24540671  0.97000415     0.74740
O650        O  0.91422919  0.23804499  0.99579670    -0.66850
O651        O  0.90714183  0.25751508  0.94680232    -0.54040
C652        C  0.89633370  0.24670994  0.97287234     0.73120
Zr653      Zr  0.97131502  0.23598549  0.00944001     2.77540
O654        O  0.98021482  0.18021251  0.00182002    -0.97590
O655        O  0.93796957  0.20918545  0.04724482    -0.78420
Zr656      Zr  0.03071325  0.23475940  0.93620659     2.70070
O657        O  0.02173836  0.17965437  0.94764374    -0.79660
O658        O  0.06115507  0.20209503  0.90053033    -0.98750
Zr659      Zr  0.95629155  0.28464886  0.93613283     2.21500
Zr660      Zr  0.05091358  0.27733484  0.01218227     2.11130
O661        O  0.02483760  0.23172273  0.99213236    -2.47430
O662        O  0.97685827  0.23543655  0.95326465    -0.79460
O663        O  0.99814148  0.28001167  0.02953909    -0.71650
O664        O  0.00961199  0.28351944  0.91888128    -2.32610
O665        O  0.95085570  0.28483569  0.99239640    -2.28820
O666        O  0.05632774  0.27865452  0.95698643    -0.73410
H667        H  0.04257703  0.34484835  0.00399866     0.78590
H668        H  0.01246376  0.28889870  0.89719580     0.79670
H669        H  0.03448286  0.21302116  0.00023857     0.81900
H670        H  0.92969054  0.28902662  0.99883790     0.79510
H671        H  0.05001433  0.33413073  0.87522081     0.42540
H672        H  0.07612407  0.21661322  0.89039658     0.41510
H673        H  0.00440853  0.17356356  0.93370658     0.41190
H674        H  0.98584175  0.17228022  0.02278033     0.39120
H675        H  0.92452486  0.22583154  0.05619444     0.42250
H676        H  0.93113904  0.30646013  0.05381795     0.37040
H677        H  0.99450367  0.39266815  0.01871518     0.43160
H678        H  0.04393578  0.39039391  0.95945542     0.39570
H679        H  0.95927045  0.17136242  0.99778239     0.44490
H680        H  0.91499395  0.33125697  0.03226921     0.43210
H681        H  0.05665884  0.38831205  0.92442142     0.43350
H682        H  0.07423880  0.18886321  0.91416048     0.43710
O683        O  0.94492220  0.71698676  0.97467749    -0.75160
O684        O  0.93274725  0.74024989  0.02105263    -0.54070
C685        C  0.92599169  0.72330510  0.99712534     0.78570
O686        O  0.09591844  0.69832514  0.00027486    -0.59760
O687        O  0.11215721  0.72933168  0.95986183    -0.52790
C688        C  0.11382071  0.70500763  0.97739085     0.70580
O689        O  0.01914885  0.69719695  0.06915473    -0.74320
O690        O  0.97501581  0.72652077  0.07480581    -0.54890
C691        C  0.99320127  0.70398759  0.08260940     0.76580
O692        O  0.02496473  0.73136846  0.90624392    -0.59470
O693        O  0.07671231  0.73759604  0.91373906    -0.52590
C694        C  0.05367161  0.72552296  0.89943571     0.73170
Zr695      Zr  0.99649090  0.72815968  0.95599595     2.54710
O696        O  0.00208578  0.67144030  0.95652830    -0.80030
O697        O  0.96219080  0.72201813  0.91119031    -0.93450
Zr698      Zr  0.05131697  0.71651350  0.02687032     2.64680
O699        O  0.04627093  0.65977502  0.02812632    -0.98400
O700        O  0.08941533  0.71423497  0.06875752    -0.80470
O701        O  0.99926211  0.72090016  0.01079114    -0.83820
O702        O  0.04762661  0.72272568  0.97214206    -2.18530
O703        O  0.01737225  0.81366649  0.91172071    -0.67210
O704        O  0.06859240  0.80035405  0.90991682    -0.51780
C705        C  0.04289614  0.80744077  0.89621203     0.71560
O706        O  0.03751397  0.80305779  0.09254604    -0.60120
O707        O  0.98614995  0.79108173  0.08716721    -0.52100
C708        C  0.01027849  0.79605619  0.10441543     0.73360
O709        O  0.11805428  0.79418414  0.02412083    -0.71520
O710        O  0.12228044  0.79510208  0.97169412    -0.50190
C711        C  0.13499647  0.79245580  0.99849643     0.74740
O712        O  0.94218427  0.82084482  0.98161581    -0.66850
O713        O  0.93682359  0.80226954  0.03101417    -0.54040
C714        C  0.92506966  0.81168737  0.00525040     0.73120
Zr715      Zr  0.99984305  0.82076247  0.96764627     2.77540
O716        O  0.01578243  0.87390924  0.98077982    -0.97590
O717        O  0.97149593  0.85687677  0.93424009    -0.78420
Zr718      Zr  0.06121384  0.80752110  0.03824327     2.70070
O719        O  0.06111671  0.86421204  0.03255301    -0.79660
O720        O  0.09526325  0.82908455  0.07827333    -0.98750
Zr721      Zr  0.98053430  0.76724857  0.03555767     2.21500
Zr722      Zr  0.07350300  0.77066981  0.95854435     2.11130
O723        O  0.05398075  0.81726572  0.98315755    -2.47430
O724        O  0.00727701  0.81492133  0.02302958    -0.79460
O725        O  0.02075657  0.77569449  0.94357029    -0.71650
O726        O  0.03315703  0.76111877  0.05161226    -2.32610
O727        O  0.97516299  0.77278986  0.98020860    -2.28820
O728        O  0.07991337  0.76203421  0.01322678    -0.73410
H729        H  0.05560444  0.70475580  0.96109395     0.78590
H730        H  0.03520012  0.75448885  0.07292436     0.79670
H731        H  0.06580764  0.83525021  0.97619963     0.81900
H732        H  0.95421069  0.77173264  0.97248035     0.79510
H733        H  0.09446444  0.73638491  0.07336018     0.42540
H734        H  0.10782789  0.81105897  0.08540432     0.41510
H735        H  0.04491073  0.87147479  0.04750732     0.41190
H736        H  0.02275167  0.88322595  0.96071224     0.39120
H737        H  0.95835057  0.84327587  0.92095838     0.42250
H738        H  0.94538814  0.73759107  0.91449826     0.37040
H739        H  0.98088832  0.66333146  0.95229630     0.43160
H740        H  0.03716841  0.65422984  0.00766313     0.39570
H741        H  0.99615341  0.88496587  0.98609519     0.44490
H742        H  0.95194878  0.70143276  0.91408634     0.43210
H743        H  0.06783809  0.65154616  0.02745807     0.43350
H744        H  0.11031337  0.84247508  0.06677197     0.43710
O745        O  0.61653668  0.83700768  0.00057180    -0.75160
O746        O  0.62484979  0.82066425  0.95079127    -0.54070
C747        C  0.63308490  0.83522289  0.97590068     0.78570
O748        O  0.54295192  0.73483402  0.06979561    -0.59760
O749        O  0.49393334  0.75541387  0.07072817    -0.52790
C750        C  0.51792379  0.74419580  0.08490133     0.70580
O751        O  0.62037320  0.74720169  0.00215715    -0.74320
O752        O  0.62669895  0.75670680  0.95053415    -0.54890
C753        C  0.63818765  0.75309042  0.97807888     0.76580
O754        O  0.53744181  0.83970411  0.06338683    -0.59470
O755        O  0.49260319  0.81164237  0.06954276    -0.52590
C756        C  0.51349627  0.83085643  0.07879130     0.73170
Zr757      Zr  0.56451559  0.82800889  0.01671670     2.54710
O758        O  0.59569785  0.82453831  0.06365783    -0.80030
O759        O  0.56090144  0.88482911  0.01640481    -0.93450
Zr760      Zr  0.56363478  0.73567476  0.01332438     2.64680
O761        O  0.59626355  0.70132813  0.04459120    -0.98400
O762        O  0.55700289  0.68166879  0.99629463    -0.80470
O763        O  0.58624901  0.78270929  0.99482924    -0.83820
O764        O  0.54268709  0.78195523  0.03461213    -2.18530
O765        O  0.46634168  0.85663835  0.97936400    -0.67210
O766        O  0.45038816  0.82384475  0.01851324    -0.51780
C767        C  0.44884727  0.84912794  0.00242509     0.71560
O768        O  0.51974153  0.75344079  0.89038755    -0.60120
O769        O  0.57125625  0.76554880  0.88770391    -0.52100
C770        C  0.54484460  0.76035798  0.87448062     0.73360
O771        O  0.44309861  0.74454232  0.96184736    -0.71520
O772        O  0.44240680  0.75386391  0.01395566    -0.50190
C773        C  0.42807235  0.74986849  0.98806110     0.74740
O774        O  0.54154323  0.86093480  0.91259845    -0.66850
O775        O  0.58508332  0.83155995  0.90365381    -0.54040
C776        C  0.56826533  0.85629352  0.89965445     0.73120
Zr777      Zr  0.50616598  0.83376109  0.94773884     2.77540
O778        O  0.47259855  0.81884719  0.90449117    -0.97590
O779        O  0.48921568  0.88592765  0.93262503    -0.78420
Zr780      Zr  0.50032544  0.74222005  0.94457539     2.70070
O781        O  0.46712004  0.71717176  0.90588883    -0.79660
O782        O  0.50966532  0.68610910  0.94773403    -0.98750
Zr783      Zr  0.57994348  0.78703276  0.93990473     2.21500
Zr784      Zr  0.48947379  0.78345979  0.02125858     2.11130
O785        O  0.47998134  0.78913387  0.96655347    -2.47430
O786        O  0.52623978  0.78797450  0.92604815    -0.79460
O787        O  0.51209426  0.83101179  0.00279235    -0.71650
O788        O  0.55526484  0.73889484  0.95750510    -2.32610
O789        O  0.55874271  0.83281058  0.96309760    -2.28820
O790        O  0.50926119  0.73596323  0.99958370    -0.73410
H791        H  0.54704422  0.78457401  0.05639151     0.78590
H792        H  0.56478223  0.72131112  0.94688625     0.79670
H793        H  0.45862074  0.79437358  0.96200743     0.81900
H794        H  0.57034303  0.85141441  0.95825985     0.79510
H795        H  0.57695522  0.67628992  0.98577503     0.42540
H796        H  0.48877610  0.67674463  0.95111757     0.41510
H797        H  0.45795328  0.73472758  0.89399350     0.41190
H798        H  0.45446827  0.83309420  0.90622530     0.39120
H799        H  0.49728669  0.89991856  0.94919305     0.42250
H800        H  0.57549849  0.89190377  0.99987770     0.37040
H801        H  0.60812480  0.80522715  0.06049730     0.43160
H802        H  0.60527411  0.71513743  0.06079299     0.39570
H803        H  0.48396005  0.82597189  0.88553329     0.44490
H804        H  0.57064271  0.89134987  0.03626962     0.43210
H805        H  0.58155937  0.68761454  0.05615530     0.43350
H806        H  0.51567247  0.67981920  0.92621058     0.43710
O807        O  0.60696767  0.06280669  0.79848769    -0.75160
O808        O  0.61359051  0.01119276  0.78579408    -0.54070
C809        C  0.62087182  0.03669602  0.80052489     0.78570
O810        O  0.45466783  0.02875712  0.81435083    -0.59760
O811        O  0.44141533  0.07019021  0.78338970    -0.52790
C812        C  0.43823648  0.05276350  0.80760613     0.70580
O813        O  0.53698938  0.96476317  0.81607854    -0.74320
O814        O  0.58094837  0.95856094  0.78643392    -0.54890
C815        C  0.56378258  0.95213837  0.81031141     0.76580
O816        O  0.52021483  0.11635069  0.80512838    -0.59470
O817        O  0.47357642  0.11545846  0.78015810    -0.52590
C818        C  0.49182827  0.12523008  0.80174083     0.73170
Zr819      Zr  0.55502490  0.07513610  0.78743283     2.54710
O820        O  0.56138122  0.06761861  0.84345703    -0.80030
O821        O  0.58277145  0.12488060  0.78660456    -0.93450
Zr822      Zr  0.49931887  0.00161392  0.79364231     2.64680
O823        O  0.49537803  0.99509327  0.85021738    -0.98400
O824        O  0.46454883  0.95680765  0.78823656    -0.80470
O825        O  0.55098547  0.02001819  0.79187345    -0.83820
O826        O  0.50442061  0.05632457  0.79010881    -2.18530
O827        O  0.53765939  0.12433291  0.70452521    -0.67210
O828        O  0.48593744  0.12223766  0.71465703    -0.51780
C829        C  0.51116021  0.13805806  0.71023235     0.71560
O830        O  0.52028586  0.94500031  0.69994533    -0.60120
O831        O  0.56728613  0.94395395  0.72470177    -0.52100
C832        C  0.54419220  0.93018556  0.71091875     0.73360
O833        O  0.43882143  0.01032682  0.70512275    -0.71520
O834        O  0.43369824  0.06219962  0.71426953    -0.50190
C835        C  0.42169557  0.03529914  0.70840894     0.74740
O836        O  0.61394155  0.05536511  0.69510285    -0.66850
O837        O  0.61476940  0.00439667  0.70812833    -0.54040
C838        C  0.62906735  0.03019861  0.70258192     0.73120
Zr839      Zr  0.55681715  0.06936219  0.69527282     2.77540
O840        O  0.54348456  0.05982673  0.64081035    -0.97590
O841        O  0.58743739  0.10540499  0.66333812    -0.78420
Zr842      Zr  0.49635018  0.99780120  0.70081029     2.70070
O843        O  0.50001935  0.00771345  0.64485074    -0.79660
O844        O  0.46850995  0.95449057  0.67657163    -0.98750
Zr845      Zr  0.57365213  0.99742047  0.74634460     2.21500
Zr846      Zr  0.48063338  0.07329172  0.74301517     2.11130
O847        O  0.50292599  0.05314120  0.69553298    -2.47430
O848        O  0.55022798  0.01354832  0.69810159    -0.79460
O849        O  0.53302184  0.09076037  0.74053363    -0.71650
O850        O  0.52050045  0.98061071  0.74815721    -2.32610
O851        O  0.57947149  0.05313743  0.74307776    -2.28820
O852        O  0.47340480  0.01799037  0.74721354    -0.73410
H853        H  0.49565411  0.06529828  0.80876596     0.78590
H854        H  0.51789662  0.95870541  0.75274103     0.79670
H855        H  0.49187840  0.06118988  0.67765737     0.81900
H856        H  0.60066365  0.06015977  0.74503427     0.79510
H857        H  0.45718938  0.95769220  0.76635538     0.42540
H858        H  0.45603555  0.94504937  0.69370764     0.41510
H859        H  0.51660464  0.99335192  0.63738844     0.41190
H860        H  0.53717075  0.08051814  0.63261816     0.39120
H861        H  0.59980606  0.11763653  0.67853997     0.42250
H862        H  0.60083750  0.12130717  0.77248721     0.37040
H863        H  0.55075701  0.04756890  0.84817178     0.43160
H864        H  0.49498470  0.01659856  0.85890089     0.39570
H865        H  0.56363420  0.05526196  0.63029202     0.44490
H866        H  0.59195874  0.12675282  0.80771289     0.43210
H867        H  0.47418300  0.98668070  0.85418003     0.43350
H868        H  0.45307839  0.96433646  0.66262011     0.43710
O869        O  0.52358586  0.30150348  0.89920081    -0.75160
O870        O  0.47119826  0.29704495  0.89303727    -0.54070
C871        C  0.49908098  0.29961963  0.88170857     0.78570
O872        O  0.57216064  0.19501437  0.96214711    -0.59760
O873        O  0.57572030  0.21056789  0.01295702    -0.52790
C874        C  0.58634265  0.19652292  0.98835349     0.70580
O875        O  0.49588962  0.22961885  0.89769111    -0.74320
O876        O  0.44514289  0.23771421  0.89635593    -0.54890
C877        C  0.46880070  0.22204742  0.88776583     0.76580
O878        O  0.59059820  0.29649602  0.97770394    -0.59470
O879        O  0.58737818  0.27217488  0.02468351    -0.52590
C880        C  0.60343685  0.28392577  0.00229652     0.73170
Zr881      Zr  0.53587917  0.30418472  0.95612101     2.54710
O882        O  0.57507214  0.33129937  0.92471754    -0.80030
O883        O  0.52936719  0.35980459  0.96683629    -0.93450
Zr884      Zr  0.52113444  0.21135246  0.94542261     2.64680
O885        O  0.54858991  0.18986407  0.90015441    -0.98400
O886        O  0.50510542  0.15701767  0.95353039    -0.80470
O887        O  0.50860425  0.26306705  0.93097518    -0.83820
O888        O  0.54888482  0.25255384  0.97053694    -2.18530
O889        O  0.48532561  0.29959318  0.07479511    -0.67210
O890        O  0.53254957  0.27477770  0.07587696    -0.51780
C891        C  0.50874256  0.28724842  0.08955491     0.71560
O892        O  0.40886696  0.21152864  0.98837608    -0.60120
O893        O  0.40627743  0.24105466  0.94416071    -0.52100
C894        C  0.39478554  0.22244920  0.96478736     0.73360
O895        O  0.48054578  0.19298695  0.05728909    -0.71520
O896        O  0.52693771  0.21544386  0.06847239    -0.50190
C897        C  0.50382693  0.19765829  0.07527980     0.74740
O898        O  0.40919825  0.30099909  0.00198311    -0.66850
O899        O  0.41105577  0.30517231  0.94977659    -0.54040
C900        C  0.39502487  0.30220360  0.97501591     0.73120
Zr901      Zr  0.46600441  0.30624365  0.01984871     2.77540
O902        O  0.43195765  0.33417427  0.05629752    -0.97590
O903        O  0.47557372  0.36195488  0.01260350    -0.78420
Zr904      Zr  0.45850045  0.21381769  0.01045799     2.70070
O905        O  0.42096896  0.21307880  0.05344680    -0.79660
O906        O  0.45020043  0.15805946  0.00199173    -0.98750
Zr907      Zr  0.45432521  0.27019462  0.94060178     2.21500
Zr908      Zr  0.53611487  0.24980153  0.02475911     2.11130
O909        O  0.48203470  0.25543179  0.03591283    -2.47430
O910        O  0.44191218  0.26410809  0.99438078    -0.79460
O911        O  0.52162281  0.30180229  0.01024635    -0.71650
O912        O  0.46774499  0.21769778  0.95628463    -2.32610
O913        O  0.48073812  0.31264445  0.96586450    -2.28820
O914        O  0.51171090  0.20647674  0.99989412    -0.73410
H915        H  0.57045829  0.24928045  0.96536439     0.78590
H916        H  0.45544393  0.20219089  0.94548619     0.79670
H917        H  0.47631462  0.25089355  0.05722056     0.81900
H918        H  0.47375149  0.33241827  0.95754060     0.79510
H919        H  0.48233888  0.15601879  0.95012451     0.42540
H920        H  0.46783320  0.14774355  0.01264916     0.41510
H921        H  0.41873885  0.23528587  0.05974157     0.41190
H922        H  0.42393411  0.31784287  0.07068200     0.39120
H923        H  0.49286351  0.36678060  0.02706749     0.42250
H924        H  0.52706780  0.36957766  0.94599715     0.37040
H925        H  0.58913981  0.31455180  0.91703437     0.43160
H926        H  0.56783664  0.20248163  0.89820101     0.39570
H927        H  0.44600366  0.34711010  0.06930278     0.44490
H928        H  0.55004459  0.36687022  0.97423425     0.43210
H929        H  0.55551353  0.16881361  0.90674709     0.43350
H930        H  0.43172989  0.15288874  0.01505709     0.43710
O931        O  0.49391344  0.93716481  0.16972715    -0.75160
O932        O  0.54527355  0.93451018  0.18027131    -0.54070
C933        C  0.52095492  0.92557042  0.16562886     0.78570
O934        O  0.52036175  0.09728490  0.16845515    -0.59760
O935        O  0.47561463  0.10709645  0.19593379    -0.52790
C936        C  0.49699258  0.11441565  0.17608980     0.70580
O937        O  0.57802315  0.00937829  0.15235901    -0.74320
O938        O  0.58922716  0.96859459  0.18490944    -0.54890
C939        C  0.59270292  0.98414649  0.15961419     0.76580
O940        O  0.42365720  0.01081453  0.18740078    -0.59470
O941        O  0.42807550  0.06249387  0.18745138    -0.52590
C942        C  0.41630488  0.03735912  0.17622660     0.73170
Zr943      Zr  0.47437851  0.98790731  0.17839852     2.54710
O944        O  0.48804740  0.99811799  0.12372890    -0.80030
O945        O  0.43241324  0.95683305  0.15572032    -0.93450
Zr946      Zr  0.54306810  0.04685927  0.17789432     2.64680
O947        O  0.54547109  0.05706469  0.12183214    -0.98400
O948        O  0.59041221  0.07799162  0.18286531    -0.80470
O949        O  0.52849411  0.99416718  0.17807295    -0.83820
O950        O  0.48814363  0.04102283  0.17787529    -2.18530
O951        O  0.42112555  0.99988148  0.26297591    -0.67210
O952        O  0.41819670  0.05161936  0.25181104    -0.51780
C953        C  0.40511427  0.02484583  0.25663964     0.71560
O954        O  0.59954912  0.02395217  0.26907549    -0.60120
O955        O  0.60012784  0.97497029  0.24830065    -0.52100
C956        C  0.61433476  0.99917011  0.25937112     0.73360
O957        O  0.53231721  0.10271316  0.26205822    -0.71520
O958        O  0.47987571  0.10490558  0.26000630    -0.50190
C959        C  0.50656808  0.11857850  0.26021650     0.74740
O960        O  0.49132193  0.92521556  0.27029307    -0.66850
O961        O  0.53942318  0.91994134  0.24762772    -0.54040
C962        C  0.51413414  0.90825112  0.25916495     0.73120
Zr963      Zr  0.47618734  0.98259460  0.27192746     2.77540
O964        O  0.48314158  0.99497967  0.32707559    -0.97590
O965        O  0.44055923  0.94968583  0.30200017    -0.78420
Zr966      Zr  0.54522683  0.04583812  0.27070813     2.70070
O967        O  0.53363284  0.03969386  0.32619653    -0.79660
O968        O  0.58016272  0.07909054  0.30083289    -0.98750
Zr969      Zr  0.54916669  0.97061204  0.22355337     2.21500
Zr970      Zr  0.46875910  0.06058504  0.22702229     2.11130
O971        O  0.48969262  0.03732200  0.27372452    -2.47430
O972        O  0.53153265  0.99114478  0.27253669    -0.79460
O973        O  0.45604151  0.00670301  0.22661304    -0.71650
O974        O  0.56452277  0.02437786  0.22269791    -2.32610
O975        O  0.49399274  0.96259765  0.22339817    -2.28820
O976        O  0.52382720  0.06820978  0.22512758    -0.73410
H977        H  0.47924795  0.05143426  0.16000436     0.78590
H978        H  0.58634957  0.02734385  0.21806794     0.79670
H979        H  0.48079865  0.04728443  0.29203066     0.81900
H980        H  0.48684452  0.94144131  0.22114116     0.79510
H981        H  0.60619933  0.06670954  0.17013840     0.42540
H982        H  0.58979637  0.09333391  0.28528067     0.41510
H983        H  0.54877266  0.02383171  0.33341115     0.41190
H984        H  0.46199247  0.00026033  0.33490961     0.39120
H985        H  0.43250632  0.93426276  0.28673692     0.42250
H986        H  0.43298792  0.93644295  0.16666994     0.37040
H987        H  0.51016018  0.00468578  0.12347843     0.43160
H988        H  0.52406534  0.06337918  0.11604365     0.39570
H989        H  0.48816105  0.97472085  0.33705062     0.44490
H990        H  0.43921774  0.95215925  0.13405139     0.43210
H991        H  0.55803189  0.07642913  0.11978491     0.43350
H992        H  0.56636371  0.09274947  0.31354870     0.43710
O993        O  0.36040932  0.95761296  0.98044504    -0.75160
O994        O  0.33133911  0.94326523  0.02300099    -0.54070
C995        C  0.35505759  0.94085099  0.00450203     0.78570
O996        O  0.32586297  0.11059048  0.98582287    -0.59760
O997        O  0.30070045  0.11224032  0.93918589    -0.52790
C998        C  0.31721867  0.12440559  0.96057874     0.70580
O999        O  0.35448818  0.02490713  0.04222150    -0.74320
O1000       O  0.32206221  0.99238513  0.06798702    -0.54890
C1001       C  0.34618166  0.01022235  0.06680393     0.76580
O1002       O  0.35699648  0.03033347  0.91395516    -0.59470
O1003       O  0.32110348  0.06762929  0.90164110    -0.52590
C1004       C  0.34806198  0.05452228  0.89926904     0.73170
Zr1005     Zr  0.33380843  0.99572942  0.95020068     2.54710
O1006       O  0.38887458  0.98701382  0.93891261    -0.80030
O1007       O  0.32516130  0.95857603  0.90787576    -0.93450
Zr1008     Zr  0.32250991  0.06144192  0.01454194     2.64680
O1009       O  0.37398599  0.08443650  0.02221232    -0.98400
O1010       O  0.31231217  0.09054241  0.06258846    -0.80470
O1011       O  0.33123138  0.00774018  0.00369389    -0.83820
O1012       O  0.32619901  0.04945314  0.96186389    -2.18530
O1013       O  0.25350682  0.99915082  0.88988350    -0.67210
O1014       O  0.25333319  0.05184018  0.88925797    -0.51780
C1015       C  0.25456530  0.02574304  0.87476034     0.71560
O1016       O  0.23184391  0.03001840  0.06838103    -0.60120
O1017       O  0.25782740  0.98381048  0.07291731    -0.52100
C1018       C  0.24357081  0.00758182  0.08501737     0.73360
O1019       O  0.23498510  0.10525093  0.99725652    -0.71520
O1020       O  0.24328127  0.10663895  0.94511097    -0.50190
C1021       C  0.23822023  0.12079318  0.97123219     0.74740
O1022       O  0.24666855  0.92685965  0.96798657    -0.66850
O1023       O  0.26538753  0.92752184  0.01783636    -0.54040
C1024       C  0.25468421  0.91288436  0.99372505     0.73120
Zr1025     Zr  0.24377060  0.98127879  0.94605885     2.77540
O1026       O  0.18692823  0.98130003  0.94465990    -0.97590
O1027       O  0.22722783  0.94094548  0.90945047    -0.78420
Zr1028     Zr  0.23136268  0.04803213  0.01268383     2.70070
O1029       O  0.17799606  0.03461781  0.99898281    -0.79660
O1030       O  0.19488314  0.07857526  0.04424602    -0.98750
Zr1031     Zr  0.28781651  0.97971973  0.02444632     2.21500
Zr1032     Zr  0.27785085  0.06216925  0.93838200     2.11130
O1033       O  0.23279690  0.03533057  0.95776577    -2.47430
O1034       O  0.23879017  0.99330601  0.00123573    -0.79460
O1035       O  0.28699857  0.00891238  0.92544493    -0.71650
O1036       O  0.28003634  0.03418886  0.03573294    -2.32610
O1037       O  0.29176467  0.96677724  0.97007153    -2.28820
O1038       O  0.27465434  0.07504128  0.99223302    -0.73410
H1039       H  0.34302899  0.06290108  0.95566030     0.78590
H1040       H  0.28276572  0.03917344  0.05749493     0.79670
H1041       H  0.21444333  0.04282519  0.94719845     0.81900
H1042       H  0.29778307  0.94530362  0.96655486     0.79510
H1043       H  0.33227175  0.09000571  0.07406623     0.42540
H1044       H  0.20796185  0.09467798  0.05444273     0.41510
H1045       H  0.17118087  0.01993793  0.01559081     0.41190
H1046       H  0.18023264  0.98189462  0.96685349     0.39120
H1047       H  0.24692381  0.93227119  0.90084754     0.42250
H1048       H  0.34121324  0.94225372  0.91093112     0.37040
H1049       H  0.40001005  0.99951666  0.95486160     0.43160
H1050       H  0.38321597  0.08598866  0.00097943     0.39570
H1051       H  0.18077080  0.00181012  0.93596684     0.44490
H1052       H  0.33199809  0.96982093  0.88876784     0.43210
H1053       H  0.37010405  0.10638196  0.02861875     0.43350
H1054       H  0.18221622  0.09040955  0.02903853     0.43710
O1055       O  0.68198308  0.00935786  0.06428485    -0.75160
O1056       O  0.71444771  0.96712042  0.06799006    -0.54070
C1057       C  0.68930547  0.98218167  0.07464352     0.78570
O1058       O  0.68955972  0.02702023  0.91944905    -0.59760
O1059       O  0.70922888  0.07633070  0.91632770    -0.52790
C1060       C  0.69090168  0.05425988  0.90750863     0.70580
O1061       O  0.70939385  0.94133167  0.96498009    -0.74320
O1062       O  0.73578530  0.93125029  0.00995705    -0.54890
C1063       C  0.72133907  0.92268253  0.98481985     0.76580
O1064       O  0.69718363  0.10570371  0.02261885    -0.59470
O1065       O  0.70934430  0.11451695  0.97178484    -0.52590
C1066       C  0.69539260  0.12178291  0.99768309     0.73170
Zr1067     Zr  0.70267067  0.05111134  0.03220805     2.54710
O1068       O  0.64685151  0.05732073  0.02402546    -0.80030
O1069       O  0.69844428  0.07526440  0.08387785    -0.93450
Zr1070     Zr  0.70760707  0.99663860  0.96174946     2.64680
O1071       O  0.65855836  0.99402911  0.99074109    -0.98400
O1072       O  0.67798096  0.96942496  0.92163640    -0.80470
O1073       O  0.70707217  0.99869871  0.01586512    -0.83820
O1074       O  0.70207927  0.04877825  0.97732775    -2.18530
O1075       O  0.78067928  0.11812816  0.02014823    -0.67210
O1076       O  0.77685676  0.12114152  0.96778457    -0.51780
C1077       C  0.77682203  0.13435747  0.99460257     0.71560
O1078       O  0.80803383  0.94534088  0.97461468    -0.60120
O1079       O  0.79579114  0.94065107  0.02580683    -0.52100
C1080       C  0.80274599  0.92819155  0.99939424     0.73360
O1081       O  0.79131394  0.02069039  0.90571768    -0.71520
O1082       O  0.76887415  0.06891767  0.90403636    -0.50190
C1083       C  0.77979321  0.04414415  0.89039182     0.74740
O1084       O  0.79621320  0.03660200  0.08628926    -0.66850
O1085       O  0.77931187  0.98591323  0.08386863    -0.54040
C1086       C  0.78913446  0.00988507  0.09932032     0.73120
Zr1087     Zr  0.79417540  0.06177052  0.03300437     2.77540
O1088       O  0.85004594  0.06334006  0.02255838    -0.97590
O1089       O  0.81464343  0.09710247  0.07264058    -0.78420
Zr1090     Zr  0.80259332  0.00343489  0.96029178     2.70070
O1091       O  0.85522097  0.02347587  0.96758377    -0.79660
O1092       O  0.83786445  0.97593185  0.92471612    -0.98750
Zr1093     Zr  0.75644620  0.98011846  0.03206784     2.21500
Zr1094     Zr  0.74760371  0.07440150  0.95758079     2.11130
O1095       O  0.79744569  0.05698720  0.97680570    -2.47430
O1096       O  0.80201126  0.00858294  0.01603802    -0.79460
O1097       O  0.74622414  0.07902254  0.01307816    -0.71650
O1098       O  0.75720611  0.97796579  0.97635703    -2.32610
O1099       O  0.74993072  0.03252105  0.05083029    -2.28820
O1100       O  0.75314047  0.02140603  0.94220126    -0.73410
H1101       H  0.68295114  0.05801230  0.97000042     0.78590
H1102       H  0.75950522  0.95851885  0.96552510     0.79670
H1103       H  0.81406692  0.06977646  0.96832593     0.81900
H1104       H  0.74517283  0.03355481  0.07283742     0.79510
H1105       H  0.69281157  0.96488151  0.90444986     0.42540
H1106       H  0.82411790  0.96389016  0.91063331     0.41510
H1107       H  0.86528008  0.00792789  0.98137159     0.41190
H1108       H  0.85491819  0.08585632  0.01999992     0.39120
H1109       H  0.79602294  0.10404839  0.08461492     0.42250
H1110       H  0.71994111  0.08168795  0.08926826     0.37040
H1111       H  0.63703108  0.05042137  0.04388748     0.43160
H1112       H  0.64407216  0.00742588  0.97884463     0.39570
H1113       H  0.85973846  0.05749009  0.04266508     0.44490
H1114       H  0.69339065  0.05812243  0.09859345     0.43210
H1115       H  0.65086470  0.97244730  0.98721741     0.43350
H1116       H  0.84708139  0.99239483  0.91123042     0.43710
O1117       O  0.02363945  0.86814211  0.55415428    -0.75160
O1118       O  0.98622689  0.83848487  0.57734879    -0.54070
C1119       C  0.00256538  0.86357787  0.57513459     0.78570
O1120       O  0.98935491  0.80665851  0.41042509    -0.59760
O1121       O  0.03833469  0.81762691  0.39872126    -0.52790
C1122       C  0.00902546  0.82020263  0.39299507     0.70580
O1123       O  0.94141123  0.84282239  0.49673716    -0.74320
O1124       O  0.94096373  0.82406328  0.54651463    -0.54890
C1125       C  0.93012352  0.84046301  0.52425929     0.76580
O1126       O  0.08812630  0.86575289  0.47119100    -0.59470
O1127       O  0.09337751  0.83200551  0.43001378    -0.52590
C1128       C  0.09898403  0.85774710  0.44423057     0.73170
Zr1129     Zr  0.05342392  0.84622450  0.51178919     2.54710
O1130       O  0.05459178  0.90313247  0.51167957    -0.80030
O1131       O  0.09794054  0.85150576  0.54643965    -0.93450
Zr1132     Zr  0.98140272  0.82876111  0.46096670     2.64680
O1133       O  0.98587790  0.88390190  0.44860618    -0.98400
O1134       O  0.93370132  0.83693679  0.43151117    -0.80470
O1135       O  0.99916038  0.83793000  0.51178859    -0.83820
O1136       O  0.03506888  0.83777939  0.46092975    -2.18530
O1137       O  0.11802721  0.76526895  0.50264770    -0.67210
O1138       O  0.11411257  0.77461492  0.45034487    -0.51780
C1139       C  0.13031310  0.77060729  0.47534435     0.71560
O1140       O  0.93817718  0.73673301  0.49475488    -0.60120
O1141       O  0.93744928  0.76202563  0.54172601    -0.52100
C1142       C  0.92320822  0.74798646  0.51885937     0.73360
O1143       O  0.00223052  0.74227184  0.41356470    -0.71520
O1144       O  0.05344335  0.75036891  0.40629618    -0.50190
C1145       C  0.02638020  0.74632022  0.39511173     0.74740
O1146       O  0.05809864  0.76242226  0.58477102    -0.66850
O1147       O  0.00782866  0.77758196  0.59439048    -0.54040
C1148       C  0.03579249  0.77102102  0.60358522     0.73120
Zr1149     Zr  0.06579912  0.75548228  0.52699891     2.77540
O1150       O  0.06399895  0.69861932  0.52365175    -0.97590
O1151       O  0.10819449  0.73575757  0.55907420    -0.78420
Zr1152     Zr  0.99241878  0.73766829  0.47235753     2.70070
O1153       O  0.01038111  0.68567308  0.48679441    -0.79660
O1154       O  0.96220533  0.69810580  0.44470367    -0.98750
Zr1155     Zr  0.98676789  0.79303124  0.54303815     2.21500
Zr1156     Zr  0.05961031  0.79012902  0.44453622     2.11130
O1157       O  0.04808796  0.74418282  0.47497572    -2.47430
O1158       O  0.01041298  0.74515237  0.52548089    -0.79460
O1159       O  0.07825816  0.79984341  0.49587238    -0.71650
O1160       O  0.96882036  0.78518086  0.49071099    -2.32610
O1161       O  0.04171826  0.80272864  0.54319564    -2.28820
O1162       O  0.00493170  0.78222973  0.44328426    -0.73410
H1163       H  0.03892248  0.85510897  0.44712035     0.78590
H1164       H  0.94674466  0.78735018  0.48770294     0.79670
H1165       H  0.05879128  0.72620038  0.46636169     0.81900
H1166       H  0.04905018  0.81015938  0.56292613     0.79510
H1167       H  0.92028756  0.81886249  0.43703643     0.42540
H1168       H  0.95246781  0.70944261  0.42712961     0.41510
H1169       H  0.99622681  0.67925064  0.50404510     0.41190
H1170       H  0.08524783  0.69239181  0.51688848     0.39120
H1171       H  0.11832964  0.75467179  0.56776822     0.42250
H1172       H  0.08914879  0.86061832  0.56587554     0.37040
H1173       H  0.03446969  0.90941669  0.50242423     0.43160
H1174       H  0.96424250  0.89058282  0.44424729     0.39570
H1175       H  0.06228585  0.69148076  0.54562457     0.44490
H1176       H  0.11029435  0.86884617  0.53726292     0.43210
H1177       H  0.99079799  0.89395332  0.46885450     0.43350
H1178       H  0.97788459  0.68441736  0.43447940     0.43710
O1179       O  0.85194679  0.00506889  0.43365244    -0.75160
O1180       O  0.82076725  0.96315316  0.42237294    -0.54070
C1181       C  0.84449829  0.98063030  0.41771294     0.78570
O1182       O  0.83269503  0.01900312  0.58247759    -0.59760
O1183       O  0.80619791  0.06501817  0.58072311    -0.52790
C1184       C  0.82591400  0.04614261  0.59298797     0.70580
O1185       O  0.83055705  0.93513085  0.52537721    -0.74320
O1186       O  0.82582718  0.93139006  0.47285249    -0.54890
C1187       C  0.83845931  0.92417787  0.49897516     0.76580
O1188       O  0.84188568  0.08901053  0.49496739    -0.59470
O1189       O  0.80972849  0.10170362  0.53580844    -0.52590
C1190       C  0.83428277  0.10556526  0.51896766     0.73170
Zr1191     Zr  0.82491874  0.04338252  0.46618680     2.54710
O1192       O  0.87837350  0.05890104  0.45426860    -0.80030
O1193       O  0.81383706  0.07598702  0.42092081    -0.93450
Zr1194     Zr  0.82044662  0.98729940  0.53842311     2.64680
O1195       O  0.87674758  0.99266566  0.53176152    -0.98400
O1196       O  0.82695959  0.95488137  0.58459335    -0.80470
O1197       O  0.82646894  0.99117583  0.48386127    -0.83820
O1198       O  0.82092649  0.03861611  0.52095848    -2.18530
O1199       O  0.73834216  0.09740126  0.46705267    -0.67210
O1200       O  0.74500684  0.10675863  0.51881210    -0.51780
C1201       C  0.74088213  0.11637852  0.49066490     0.71560
O1202       O  0.72948466  0.92364680  0.51664452    -0.60120
O1203       O  0.75515446  0.91723551  0.47018792    -0.52100
C1204       C  0.74101926  0.90603435  0.49429056     0.73360
O1205       O  0.73588100  0.00360304  0.58618449    -0.71520
O1206       O  0.74201319  0.05603949  0.58430030    -0.50190
C1207       C  0.73945363  0.03061573  0.60005681     0.74740
O1208       O  0.73749047  0.01364251  0.40546634    -0.66850
O1209       O  0.76028016  0.96565550  0.40977090    -0.54040
C1210       C  0.74825742  0.98782344  0.39338931     0.73120
Zr1211     Zr  0.73327308  0.03975034  0.45801072     2.77540
O1212       O  0.67672433  0.03469602  0.46175387    -0.97590
O1213       O  0.70930803  0.07131344  0.41743296    -0.78420
Zr1214     Zr  0.72833062  0.98157212  0.53181616     2.70070
O1215       O  0.67321408  0.99273239  0.52453157    -0.79660
O1216       O  0.69950223  0.94911736  0.56889922    -0.98750
Zr1217     Zr  0.78209355  0.96591094  0.46223168     2.21500
Zr1218     Zr  0.77188239  0.06005406  0.53598689     2.11130
O1219       O  0.72662781  0.03508512  0.51395435    -2.47430
O1220       O  0.73189442  0.98648125  0.47588526    -0.79460
O1221       O  0.77666117  0.06546339  0.48068486    -0.71650
O1222       O  0.77719796  0.96064064  0.51748816    -2.32610
O1223       O  0.78242790  0.01834269  0.44310164    -2.28820
O1224       O  0.77199401  0.00743848  0.55349179    -0.73410
H1225       H  0.83863602  0.04790075  0.53118138     0.78590
H1226       H  0.77859550  0.93956093  0.52506681     0.79670
H1227       H  0.70800100  0.04556793  0.52127282     0.81900
H1228       H  0.78787442  0.01986765  0.42124175     0.79510
H1229       H  0.80544718  0.94895983  0.59074895     0.42540
H1230       H  0.71545337  0.94163559  0.58375569     0.41510
H1231       H  0.66494299  0.97380626  0.51406616     0.41190
H1232       H  0.67285926  0.01212507  0.46521842     0.39120
H1233       H  0.72706105  0.07927415  0.40478047     0.42250
H1234       H  0.83142176  0.07204027  0.40628417     0.37040
H1235       H  0.89084760  0.05019274  0.47158142     0.43160
H1236       H  0.87960980  0.00755286  0.51424396     0.39570
H1237       H  0.67054247  0.04501688  0.48158720     0.44490
H1238       H  0.81713840  0.09768199  0.42838045     0.43210
H1239       H  0.88388869  0.00428644  0.55044018     0.43350
H1240       H  0.68660431  0.96392717  0.58126035     0.43710
O1241       O  0.19037612  0.95131917  0.46989529    -0.75160
O1242       O  0.21976850  0.94463685  0.42575578    -0.54070
C1243       C  0.19642284  0.93847324  0.44328900     0.78570
O1244       O  0.18512364  0.10060812  0.48605245    -0.59760
O1245       O  0.22225978  0.11531528  0.52048986    -0.52790
C1246       C  0.19811102  0.12074307  0.50402155     0.70580
O1247       O  0.17981101  0.01560411  0.42870678    -0.74320
O1248       O  0.21119716  0.99519416  0.39327247    -0.54890
C1249       C  0.18517425  0.00840311  0.40034522     0.76580
O1250       O  0.22019518  0.00896056  0.55770765    -0.59470
O1251       O  0.21279747  0.05937448  0.56241846    -0.52590
C1252       C  0.20374571  0.03135108  0.56772818     0.73170
Zr1253     Zr  0.20832268  0.98989415  0.50755268     2.54710
O1254       O  0.15292494  0.99510109  0.51913882    -0.80030
O1255       O  0.20239285  0.94281481  0.53912554    -0.93450
Zr1256     Zr  0.20432735  0.06135678  0.44964843     2.64680
O1257       O  0.15263385  0.07937197  0.43461020    -0.98400
O1258       O  0.20960691  0.09465758  0.40361911    -0.80470
O1259       O  0.20740976  0.00668088  0.45623869    -0.83820
O1260       O  0.20518367  0.04558380  0.50208825    -2.18530
O1261       O  0.29140149  0.00604822  0.56345625    -0.67210
O1262       O  0.28162420  0.05814038  0.56899931    -0.51780
C1263       C  0.28676958  0.03093795  0.58051770     0.71560
O1264       O  0.29774622  0.04820192  0.38808721    -0.60120
O1265       O  0.28214346  0.99752862  0.38376286    -0.52100
C1266       C  0.29157307  0.02334143  0.37174684     0.73360
O1267       O  0.28671675  0.11938728  0.46225379    -0.71520
O1268       O  0.27677545  0.11947750  0.51443245    -0.50190
C1269       C  0.28132040  0.13416776  0.48834030     0.74740
O1270       O  0.30375912  0.93936380  0.48345062    -0.66850
O1271       O  0.28263273  0.93963530  0.43488709    -0.54040
C1272       C  0.29560470  0.92532816  0.45777050     0.73120
Zr1273     Zr  0.30041060  0.99331917  0.50630503     2.77540
O1274       O  0.35632413  0.00316303  0.50239431    -0.97590
O1275       O  0.32753418  0.95742227  0.54087680    -0.78420
Zr1276     Zr  0.29691433  0.06427178  0.44447904     2.70070
O1277       O  0.35212673  0.06293029  0.45729826    -0.79660
O1278       O  0.32573729  0.09674441  0.40740100    -0.98750
Zr1279     Zr  0.25339800  0.98820847  0.43124763     2.21500
Zr1280     Zr  0.25254393  0.06794179  0.52226075     2.11130
O1281       O  0.30024892  0.04932167  0.49869233    -2.47430
O1282       O  0.30078502  0.00875489  0.45213325    -0.79460
O1283       O  0.25407487  0.01225971  0.52869906    -0.71650
O1284       O  0.24985070  0.04365857  0.42325955    -2.32610
O1285       O  0.25407077  0.97100209  0.48443851    -2.28820
O1286       O  0.25070987  0.08285356  0.46886250    -0.73410
H1287       H  0.18711512  0.05257693  0.51235008     0.78590
H1288       H  0.24607000  0.04868898  0.40166670     0.79670
H1289       H  0.31775684  0.05924382  0.50876221     0.81900
H1290       H  0.25131452  0.94876880  0.48700909     0.79510
H1291       H  0.19884756  0.08306198  0.38676189     0.42540
H1292       H  0.30967983  0.10895276  0.39626781     0.41510
H1293       H  0.36187376  0.05092522  0.43996931     0.41190
H1294       H  0.36067610  0.00514685  0.47971781     0.39120
H1295       H  0.31097199  0.94348078  0.54918724     0.42250
H1296       H  0.21291569  0.92612863  0.52690756     0.37040
H1297       H  0.14301931  0.99655497  0.49834321     0.43160
H1298       H  0.13897859  0.07448105  0.45274539     0.39570
H1299       H  0.35971150  0.02435077  0.51111134     0.44490
H1300       H  0.17992425  0.93759016  0.53793782     0.43210
H1301       H  0.15376662  0.10250983  0.43414919     0.43350
H1302       H  0.33704566  0.11223716  0.42025271     0.43710
O1303       O  0.91981868  0.28803190  0.45305359    -0.75160
O1304       O  0.91609516  0.28888058  0.50569714    -0.54070
C1305       C  0.90328420  0.28732558  0.47888432     0.78570
O1306       O  0.03057180  0.18246425  0.42874149    -0.59760
O1307       O  0.06033785  0.21697958  0.40237825    -0.52790
C1308       C  0.04565503  0.19103098  0.40406133     0.70580
O1309       O  0.94447956  0.18557542  0.48745637    -0.74320
O1310       O  0.92770287  0.22207604  0.52274440    -0.54890
C1311       C  0.92702623  0.19479270  0.51016705     0.76580
O1312       O  0.99883255  0.28999976  0.38309746    -0.59470
O1313       O  0.04956187  0.27424110  0.38642136    -0.52590
C1314       C  0.02505277  0.28123232  0.37020201     0.73170
Zr1315     Zr  0.97657327  0.29720867  0.43742001     2.54710
O1316       O  0.94068825  0.31667236  0.39812122    -0.80030
O1317       O  0.97903102  0.35412404  0.43955418    -0.93450
Zr1318     Zr  0.98477408  0.20677926  0.45389834     2.64680
O1319       O  0.94669018  0.21467830  0.41225367    -0.98400
O1320       O  0.97347641  0.15345591  0.43697499    -0.80470
O1321       O  0.95720943  0.25346668  0.46533908    -0.83820
O1322       O  0.00392707  0.24971398  0.42629116    -2.18530
O1323       O  0.09542877  0.31449838  0.49198663    -0.67210
O1324       O  0.10069338  0.29323208  0.44382246    -0.51780
C1325       C  0.11269908  0.30369503  0.46923640     0.71560
O1326       O  0.01357702  0.24209400  0.56956174    -0.60120
O1327       O  0.96305037  0.23450875  0.56717853    -0.52100
C1328       C  0.98891762  0.22909519  0.58038871     0.73360
O1329       O  0.09143157  0.20831246  0.50563211    -0.71520
O1330       O  0.10368242  0.22900057  0.45812008    -0.50190
C1331       C  0.11017736  0.21307993  0.48288518     0.74740
O1332       O  0.02055525  0.31227861  0.56269100    -0.66850
O1333       O  0.96908984  0.30161754  0.56258484    -0.54040
C1334       C  0.99424949  0.30774283  0.57746061     0.73120
Zr1335     Zr  0.03802756  0.31518653  0.50626425     2.77540
O1336       O  0.06363075  0.35504403  0.53786850    -0.97590
O1337       O  0.02270731  0.36735546  0.48954710    -0.78420
Zr1338     Zr  0.04166219  0.22407777  0.52345377     2.70070
O1339       O  0.08248631  0.22559052  0.56265490    -0.79660
O1340       O  0.03411885  0.16988193  0.53948254    -0.98750
Zr1341     Zr  0.96451934  0.26464707  0.51942490     2.21500
Zr1342     Zr  0.05706910  0.25744479  0.44119742     2.11130
O1343       O  0.06294356  0.26654923  0.49593176    -2.47430
O1344       O  0.01736366  0.27186536  0.53355745    -0.79460
O1345       O  0.03055144  0.30589167  0.45128725    -0.71650
O1346       O  0.99046506  0.21603326  0.50834692    -2.32610
O1347       O  0.98391406  0.30964676  0.49174935    -2.28820
O1348       O  0.03740604  0.21302841  0.46921849    -0.73410
H1349       H  0.00240211  0.24185945  0.40528019     0.78590
H1350       H  0.98399126  0.19899157  0.52159074     0.79670
H1351       H  0.08404544  0.26545817  0.50331390     0.81900
H1352       H  0.97209144  0.32799633  0.49766902     0.79510
H1353       H  0.99079146  0.14054385  0.44504268     0.42540
H1354       H  0.03078981  0.15837110  0.51964498     0.41510
H1355       H  0.08558195  0.24815931  0.56692783     0.41190
H1356       H  0.07790198  0.34328975  0.55163310     0.39120
H1357       H  0.03790745  0.37280353  0.47286196     0.42250
H1358       H  0.95712401  0.36090948  0.44249225     0.37040
H1359       H  0.92789325  0.29828584  0.39229921     0.43160
H1360       H  0.95817783  0.21723126  0.39228020     0.39570
H1361       H  0.07754950  0.36645535  0.52323131     0.44490
H1362       H  0.98453861  0.36059868  0.41797424     0.43210
H1363       H  0.93564479  0.19443860  0.41016869     0.43350
H1364       H  0.05495013  0.16300016  0.54653665     0.43710
O1365       O  0.03095467  0.91912006  0.22259738    -0.75160
O1366       O  0.97871513  0.91555568  0.22837086    -0.54070
C1367       C  0.00576478  0.90265023  0.22742374     0.78570
O1368       O  0.07882648  0.01331788  0.32043430    -0.59760
O1369       O  0.08677014  0.05783382  0.29206832    -0.52790
C1370       C  0.09249594  0.03923785  0.31495637     0.70580
O1371       O  0.01218939  0.93618909  0.31791877    -0.74320
O1372       O  0.96580898  0.92694118  0.29409118    -0.54890
C1373       C  0.98611941  0.92191616  0.31547038     0.76580
O1374       O  0.09842308  0.99709300  0.20863875    -0.59470
O1375       O  0.09955610  0.04738407  0.22671711    -0.52590
C1376       C  0.11325184  0.02260146  0.21613547     0.73170
Zr1377     Zr  0.04392770  0.97544364  0.20907920     2.54710
O1378       O  0.08160715  0.94061332  0.18415245    -0.80030
O1379       O  0.03299029  0.97586405  0.15325172    -0.93450
Zr1380     Zr  0.03736418  0.98275978  0.30076085     2.64680
O1381       O  0.07871534  0.94472896  0.30925185    -0.98400
O1382       O  0.03141554  0.99618682  0.35565128    -0.80470
O1383       O  0.02090272  0.95652847  0.25558073    -0.83820
O1384       O  0.06184033  0.00076001  0.25529787    -2.18530
O1385       O  0.99066442  0.09655818  0.20044439    -0.67210
O1386       O  0.04039376  0.10063148  0.21860019    -0.51780
C1387       C  0.01522692  0.11287535  0.20774891     0.71560
O1388       O  0.92669668  0.01242921  0.31184177    -0.60120
O1389       O  0.92220385  0.96523910  0.28725534    -0.52100
C1390       C  0.91371365  0.98582644  0.30742852     0.73360
O1391       O  0.99535503  0.08990419  0.31219505    -0.71520
O1392       O  0.03941915  0.09978271  0.28379763    -0.50190
C1393       C  0.01916038  0.10653874  0.30513144     0.74740
O1394       O  0.91982419  0.02184303  0.21056756    -0.66850
O1395       O  0.92043042  0.96997431  0.22018818    -0.54040
C1396       C  0.90547034  0.99542204  0.21538924     0.73120
Zr1397     Zr  0.97521108  0.03946452  0.20224737     2.77540
O1398       O  0.93895535  0.06834121  0.16947761    -0.97590
O1399       O  0.98495208  0.02502313  0.14794005    -0.78420
Zr1400     Zr  0.97001404  0.04327405  0.29430771     2.70070
O1401       O  0.92839397  0.08070299  0.28478438    -0.79660
O1402       O  0.96134940  0.04552197  0.35076721    -0.98750
Zr1403     Zr  0.96640619  0.96536484  0.25218082     2.21500
Zr1404     Zr  0.04803222  0.05457197  0.25081006     2.11130
O1405       O  0.99322010  0.06324964  0.24894600    -2.47430
O1406       O  0.95222876  0.01906665  0.24850286    -0.79460
O1407       O  0.03064284  0.03003010  0.20360726    -0.71650
O1408       O  0.98367632  0.99051100  0.29852752    -2.32610
O1409       O  0.98875734  0.98465203  0.20423156    -2.28820
O1410       O  0.02435536  0.03582535  0.29744384    -0.73410
H1411       H  0.08350905  0.99747486  0.26013631     0.78590
H1412       H  0.97450669  0.98220200  0.31741939     0.79670
H1413       H  0.98825368  0.08494845  0.25157677     0.81900
H1414       H  0.98020112  0.97339651  0.18664613     0.79510
H1415       H  0.01627202  0.01362876  0.35609629     0.42540
H1416       H  0.97867839  0.05804150  0.35946518     0.41510
H1417       H  0.91907936  0.07389740  0.26476503     0.41190
H1418       H  0.92886501  0.08356412  0.18381763     0.39120
H1419       H  0.00122159  0.03988559  0.14075790     0.42250
H1420       H  0.03038286  0.95355530  0.14751730     0.37040
H1421       H  0.09504108  0.93338276  0.20143421     0.43160
H1422       H  0.09659566  0.95247213  0.29665887     0.39570
H1423       H  0.95211952  0.08125770  0.15540279     0.44490
H1424       H  0.05289301  0.98222477  0.14320703     0.43210
H1425       H  0.08506798  0.94803212  0.33123477     0.43350
H1426       H  0.94257640  0.05872996  0.35360739     0.43710
O1427       O  0.03636441  0.98178691  0.65418295    -0.75160
O1428       O  0.05796107  0.94785023  0.68592963    -0.54070
C1429       C  0.04353911  0.95368448  0.66060993     0.78570
O1430       O  0.03785233  0.12247346  0.67605553    -0.59760
O1431       O  0.98635299  0.12135824  0.68609786    -0.52790
C1432       C  0.01049974  0.13358552  0.67296014     0.70580
O1433       O  0.10389625  0.04393136  0.66618112    -0.74320
O1434       O  0.09986098  0.99213504  0.67407112    -0.54890
C1435       C  0.10992935  0.01575285  0.65860896     0.76580
O1436       O  0.94400696  0.03422214  0.65977914    -0.59470
O1437       O  0.93903563  0.07982224  0.68707130    -0.52590
C1438       C  0.92993539  0.05973090  0.66700013     0.73170
Zr1439     Zr  0.98938209  0.00445077  0.67465963     2.54710
O1440       O  0.97547738  0.99112299  0.62115679    -0.80030
O1441       O  0.95880156  0.95673119  0.68118494    -0.93450
Zr1442     Zr  0.05435331  0.06883436  0.67393929     2.64680
O1443       O  0.03977040  0.06388387  0.61895364    -0.98400
O1444       O  0.09924696  0.09931131  0.65653921    -0.80470
O1445       O  0.04331274  0.01534987  0.67385040    -0.83820
O1446       O  0.00031686  0.05858023  0.67391620    -2.18530
O1447       O  0.93458151  0.01908192  0.76021214    -0.67210
O1448       O  0.93107264  0.07026128  0.74702856    -0.51780
C1449       C  0.91817566  0.04408013  0.75407179     0.71560
O1450       O  0.11357694  0.04927253  0.76617758    -0.60120
O1451       O  0.11706992  0.00163635  0.74212255    -0.52100
C1452       C  0.12983347  0.02577494  0.75500218     0.73360
O1453       O  0.03969534  0.12533578  0.75503348    -0.71520
O1454       O  0.98764996  0.12300537  0.75546815    -0.50190
C1455       C  0.01251605  0.13910367  0.75316643     0.74740
O1456       O  0.01074384  0.94641051  0.76784116    -0.66850
O1457       O  0.06103112  0.94595978  0.75092657    -0.54040
C1458       C  0.03643368  0.93167984  0.76089110     0.73120
Zr1459     Zr  0.99069608  0.00193440  0.76740280     2.77540
O1460       O  0.99510385  0.00908017  0.82379589    -0.97590
O1461       O  0.95410968  0.96739175  0.79423672    -0.78420
Zr1462     Zr  0.05744545  0.06935187  0.76676366     2.70070
O1463       O  0.04575698  0.06535716  0.82243699    -0.79660
O1464       O  0.09172105  0.10536621  0.79440548    -0.98750
Zr1465     Zr  0.06574320  0.99286826  0.71965169     2.21500
Zr1466     Zr  0.98151861  0.07823357  0.72254564     2.11130
O1467       O  0.00264221  0.05700300  0.76977049    -2.47430
O1468       O  0.04570186  0.01399878  0.76788853    -0.79460
O1469       O  0.96902567  0.02414115  0.72191751    -0.71650
O1470       O  0.07658334  0.04792614  0.71940682    -2.32610
O1471       O  0.01068361  0.98094938  0.71968849    -2.28820
O1472       O  0.03553356  0.09048384  0.72094825    -0.73410
H1473       H  0.99087827  0.06882931  0.65627755     0.78590
H1474       H  0.09802412  0.05387521  0.71694267     0.79670
H1475       H  0.99288811  0.06688546  0.78766532     0.81900
H1476       H  0.00655270  0.95900068  0.71649277     0.79510
H1477       H  0.10840157  0.10765557  0.67605623     0.42540
H1478       H  0.09926089  0.12006507  0.77813660     0.41510
H1479       H  0.06314239  0.05283232  0.83096430     0.41190
H1480       H  0.01778997  0.00968975  0.82784366     0.39120
H1481       H  0.94136645  0.95811703  0.77736260     0.42250
H1482       H  0.96216054  0.94472410  0.66162611     0.37040
H1483       H  0.98005569  0.01034831  0.60905216     0.43160
H1484       H  0.02403279  0.08037166  0.61528998     0.39570
H1485       H  0.98761018  0.03053161  0.82826747     0.44490
H1486       H  0.93685419  0.96381647  0.68010544     0.43210
H1487       H  0.05808914  0.07080720  0.60664584     0.43350
H1488       H  0.07767186  0.11816083  0.80773444     0.43710
C1489       C  0.03498428  0.27103470  0.21298845     0.00690
C1490       C  0.03270776  0.24653720  0.23461087     0.00690
C1491       C  0.75073397  0.00017758  0.23261728     0.00690
C1492       C  0.77364566  0.99531003  0.25567298     0.00690
C1493       C  0.00018687  0.76695054  0.26134551     0.00690
C1494       C  0.99277661  0.74815663  0.23542969     0.00690
C1495       C  0.27219558  0.01979185  0.21901633     0.00690
C1496       C  0.24944495  0.02160681  0.24226883     0.00690
C1497       C  0.26697536  0.29326834  0.48767840     0.00690
C1498       C  0.24570148  0.26867794  0.48555770     0.00690
C1499       C  0.74587240  0.27291820  0.47941895     0.00690
C1500       C  0.76942946  0.25120284  0.47314640     0.00690
C1501       C  0.28810047  0.76698911  0.45659829     0.00690
C1502       C  0.26613612  0.79109476  0.45729737     0.00690
C1503       C  0.28717928  0.02975289  0.73856234     0.00690
C1504       C  0.26294965  0.03263873  0.71702018     0.00690
C1505       C  0.24119569  0.28088126  0.95484921     0.00690
C1506       C  0.26395834  0.25733895  0.95652137     0.00690
C1507       C  0.27072687  0.75601369  0.00376626     0.00690
C1508       C  0.29197332  0.78034569  0.99887172     0.00690
C1509       C  0.51510952  0.75093093  0.24190354     0.00690
C1510       C  0.50594395  0.77460486  0.22120332     0.00690
C1511       C  0.48943222  0.27473123  0.24358347     0.00690
C1512       C  0.49031222  0.25051511  0.22147351     0.00690
C1513       C  0.50456802  0.29387497  0.72385963     0.00690
C1514       C  0.49906246  0.27139778  0.74673053     0.00690
C1515       C  0.98984912  0.29114283  0.73534047     0.00690
C1516       C  0.00101739  0.27179438  0.71121582     0.00690
C1517       C  0.76619737  0.28885893  0.99569461     0.00690
C1518       C  0.74127908  0.26848835  0.00245705     0.00690
C1519       C  0.27395864  0.53025342  0.24464515     0.00690
C1520       C  0.24850108  0.53095351  0.22450556     0.00690
C1521       C  0.75199126  0.50609021  0.25151817     0.00690
C1522       C  0.77585224  0.50985453  0.22932615     0.00690
C1523       C  0.28399695  0.52585250  0.72323322     0.00690
C1524       C  0.26132569  0.52211986  0.74637469     0.00690
C1525       C  0.03926861  0.77236344  0.76146340     0.00690
C1526       C  0.04547800  0.79518254  0.73870225     0.00690
C1527       C  0.75755563  0.02926371  0.75357062     0.00690
C1528       C  0.78188921  0.02562328  0.73199615     0.00690
C1529       C  0.79359325  0.76951394  0.99408102     0.00690
C1530       C  0.77078550  0.79250371  0.99201490     0.00690
C1531       C  0.76239974  0.53893245  0.73227077     0.00690
C1532       C  0.78614569  0.54062171  0.75401471     0.00690
C1533       C  0.76630280  0.75125746  0.49293519     0.00690
C1534       C  0.78676768  0.77603339  0.49960026     0.00690
C1535       C  0.52227036  0.77289282  0.71959703     0.00690
C1536       C  0.52296294  0.79644604  0.74249403     0.00690
C1537       C  0.83098400  0.05874410  0.73403772    -0.05650
C1538       C  0.81652949  0.02996732  0.74131466     0.00270
C1539       C  0.83610005  0.00720640  0.75629424    -0.08300
C1540       C  0.86855128  0.01283078  0.75932063    -0.05670
C1541       C  0.88264788  0.04163093  0.75220039     0.00260
C1542       C  0.86240422  0.06600262  0.74158185    -0.08210
C1543       C  0.87255569  0.10011872  0.73936158     0.62170
H1544       H  0.81724562  0.07652579  0.72299599     0.12870
H1545       H  0.88306483  0.99426124  0.76847837     0.12880
C1546       C  0.82558073  0.97642916  0.77010163     0.62410
F1547       F  0.84750158  0.12004543  0.73508592    -0.22760
F1548       F  0.89246737  0.10444113  0.71438340    -0.20090
F1549       F  0.88707894  0.10908178  0.76674789    -0.19770
F1550       F  0.83800231  0.95200660  0.75276601    -0.19820
F1551       F  0.79402469  0.97342815  0.77112963    -0.20140
F1552       F  0.83607495  0.97410612  0.80056464    -0.22810
C1553       C  0.97872621  0.21957909  0.72723723    -0.05650
C1554       C  0.00526857  0.23647214  0.71793533     0.00270
C1555       C  0.03445999  0.22017599  0.71919263    -0.08300
C1556       C  0.03573631  0.18931497  0.73176469    -0.05670
C1557       C  0.00926466  0.17333963  0.74311433     0.00260
C1558       C  0.97989657  0.18926505  0.74064776    -0.08210
C1559       C  0.94929270  0.17515564  0.75223073     0.62170
H1560       H  0.95657439  0.23089892  0.72422431     0.12870
H1561       H  0.05785029  0.17719479  0.73268172     0.12880
C1562       C  0.06458229  0.23450894  0.70738931     0.62410
F1563       F  0.92514691  0.19664962  0.75205764    -0.22760
F1564       F  0.95246236  0.16493144  0.78273576    -0.20090
F1565       F  0.94068325  0.15053685  0.73310247    -0.19770
F1566       F  0.07392600  0.25788945  0.72747748    -0.19820
F1567       F  0.06041763  0.24606902  0.67761677    -0.20140
F1568       F  0.08854657  0.21284436  0.70574988    -0.22810
C1569       C  0.18177652  0.00008730  0.74243676    -0.05650
C1570       C  0.16553261  0.02741896  0.75219703     0.00270
C1571       C  0.18318165  0.05579836  0.75316027    -0.08300
C1572       C  0.21449512  0.05601014  0.74196891    -0.05670
C1573       C  0.22961271  0.02925872  0.72984653     0.00260
C1574       C  0.21308795  0.00041895  0.73123651    -0.08210
C1575       C  0.22662998  0.96943360  0.72009220     0.62170
H1576       H  0.16938671  0.97797197  0.74206463     0.12870
H1577       H  0.22715148  0.07789472  0.74088647     0.12880
C1578       C  0.16923668  0.08632361  0.76482942     0.62410
F1579       F  0.22740065  0.94876896  0.74489553    -0.22760
F1580       F  0.25625172  0.97197756  0.70759546    -0.20090
F1581       F  0.20803085  0.95684735  0.69714093    -0.19770
F1582       F  0.15728873  0.08222810  0.79469771    -0.19820
F1583       F  0.14595113  0.09594015  0.74483468    -0.20140
F1584       F  0.19119276  0.11006425  0.76624707    -0.22810
C1585       C  0.06698742  0.88229101  0.75233728    -0.05650
C1586       C  0.03814313  0.89594649  0.76093016     0.00270
C1587       C  0.01225753  0.87518602  0.76506667    -0.08300
C1588       C  0.01604580  0.84269175  0.75856153    -0.05670
C1589       C  0.04459189  0.82970694  0.74835393     0.00260
C1590       C  0.07082248  0.85007443  0.74627355    -0.08210
C1591       C  0.10352708  0.83970323  0.73726976     0.62170
H1592       H  0.08731936  0.89713001  0.74950203     0.12870
H1593       H  0.99625004  0.82705900  0.76050039     0.12880
C1594       C  0.98044697  0.88683290  0.77556042     0.62410
F1595       F  0.11132829  0.85211089  0.70839250    -0.22760
F1596       F  0.10673620  0.80773722  0.73587754    -0.20090
F1597       F  0.12450325  0.85067487  0.75915459    -0.19770
F1598       F  0.96797996  0.90593787  0.75277985    -0.19820
F1599       F  0.98320736  0.90321366  0.80334609    -0.20140
F1600       F  0.95970189  0.86247888  0.78069916    -0.22810
C1601       C  0.16199991  0.99487925  0.23113522    -0.05650
C1602       C  0.14853358  0.02146767  0.21763054     0.00270
C1603       C  0.16868407  0.04660690  0.20971178    -0.08300
C1604       C  0.20095576  0.04450382  0.21685588    -0.05670
C1605       C  0.21424086  0.01942598  0.23388370     0.00260
C1606       C  0.19373593  0.99336495  0.24020696    -0.08210
C1607       C  0.20280964  0.96273343  0.25561976     0.62170
H1608       H  0.14678212  0.97524841  0.23635929     0.12870
H1609       H  0.21595124  0.06373039  0.21033904     0.12880
C1610       C  0.15638860  0.07550282  0.19334127     0.62410
F1611       F  0.17950231  0.95295644  0.27602707    -0.22760
F1612       F  0.22950146  0.96481966  0.27266472    -0.20090
F1613       F  0.20653517  0.94000845  0.23289529    -0.19770
F1614       F  0.13837248  0.09293838  0.21387869    -0.19820
F1615       F  0.13852112  0.06673104  0.16797814    -0.20140
F1616       F  0.18032140  0.09445574  0.18247274    -0.22810
C1617       C  0.03091446  0.81812450  0.25191321    -0.05650
C1618       C  0.00177156  0.80283696  0.25598850     0.00270
C1619       C  0.97475458  0.82139465  0.25032950    -0.08300
C1620       C  0.97785199  0.85228816  0.23897801    -0.05670
C1621       C  0.00673088  0.86767935  0.23518924     0.00260
C1622       C  0.03397424  0.84996810  0.24221915    -0.08210
C1623       C  0.06636389  0.86406673  0.23916086     0.62170
H1624       H  0.05180930  0.80452682  0.25434566     0.12870
H1625       H  0.95671088  0.86492536  0.23353448     0.12880
C1626       C  0.94179370  0.80974607  0.25527659     0.62890
F1627       F  0.08953368  0.84280138  0.24644933    -0.22760
F1628       F  0.06922844  0.88921385  0.25936022    -0.20090
F1629       F  0.07135504  0.87380525  0.20869716    -0.19770
F1630       F  0.94034368  0.78736118  0.27824715    -0.19820
F1631       F  0.93073031  0.79782928  0.22753122    -0.20140
F1632       F  0.92232153  0.83390600  0.26467812    -0.22810
C1633       C  0.82092401  0.96899619  0.23217147    -0.05650
C1634       C  0.80748826  0.99661390  0.24423956     0.00270
C1635       C  0.82491344  0.02481599  0.24045537    -0.08300
C1636       C  0.85534461  0.02353831  0.22732496    -0.05670
C1637       C  0.87041331  0.99507809  0.22009628     0.00260
C1638       C  0.85221178  0.96712235  0.22176577    -0.08210
C1639       C  0.86524605  0.93498783  0.21343627     0.62170
H1640       H  0.80682887  0.94814929  0.23212972     0.12870
H1641       H  0.86839747  0.04518387  0.22522457     0.12880
C1642       C  0.81295693  0.05704442  0.24938479     0.62410
F1643       F  0.84210229  0.91245552  0.21156170    -0.22760
F1644       F  0.88576766  0.92526467  0.23624295    -0.20090
F1645       F  0.88029528  0.93615048  0.18471408    -0.19770
F1646       F  0.83447286  0.07240750  0.26780228    -0.19820
F1647       F  0.78514713  0.05604060  0.26587610    -0.20140
F1648       F  0.80923530  0.07444344  0.22245966    -0.22810
C1649       C  0.99895354  0.19839659  0.23026195    -0.05650
C1650       C  0.02803195  0.21255596  0.22357517     0.00270
C1651       C  0.04990147  0.19432662  0.20558409    -0.08300
C1652       C  0.04302179  0.16287406  0.19826004    -0.05670
C1653       C  0.01507410  0.14825038  0.20690982     0.00260
C1654       C  0.99157685  0.16719508  0.22111396    -0.08210
C1655       C  0.95859896  0.15513906  0.22580562     0.62170
H1656       H  0.98159875  0.21241932  0.24232817     0.12870
H1657       H  0.06063898  0.14883560  0.18646782     0.12880
C1658       C  0.08142002  0.20510946  0.19379845     0.62410
F1659       F  0.93905024  0.17783056  0.23823624    -0.22760
F1660       F  0.95832362  0.13002597  0.24586652    -0.20090
F1661       F  0.94663338  0.14590897  0.19730085    -0.19770
F1662       F  0.08881834  0.23448895  0.20351735    -0.19820
F1663       F  0.08167240  0.20466772  0.16143218    -0.20140
F1664       F  0.10435480  0.18509379  0.20447381    -0.22810
C1665       C  0.02142347  0.30970778  0.62994127    -0.05650
C1666       C  0.99407398  0.30389935  0.61286816     0.00270
C1667       C  0.96835301  0.29084203  0.62966783    -0.08300
C1668       C  0.97358154  0.27736546  0.65958378    -0.05670
C1669       C  0.00071075  0.28336689  0.67711886     0.00260
C1670       C  0.02422838  0.30217606  0.66217978    -0.08210
C1671       C  0.05262203  0.31566126  0.67819827     0.62170
H1672       H  0.04073840  0.32127967  0.61820804     0.12870
H1673       H  0.95512072  0.26394099  0.67057802     0.12880
C1674       C  0.93481137  0.29537732  0.61862477     0.62410
F1675       F  0.07945589  0.30509332  0.66343324    -0.22760
F1676       F  0.05420303  0.30795796  0.70925088    -0.20090
F1677       F  0.05174946  0.34796070  0.67606235    -0.19770
F1678       F  0.92755283  0.27594479  0.59398549    -0.19820
F1679       F  0.93068050  0.32600875  0.60909309    -0.20140
F1680       F  0.91351984  0.28959036  0.64245514    -0.22810
C1681       C  0.85236063  0.28271518  0.44944002    -0.05650
C1682       C  0.86806830  0.28173778  0.47818207     0.00270
C1683       C  0.84962636  0.27399335  0.50531353    -0.08300
C1684       C  0.81901975  0.26203748  0.50141251    -0.05670
C1685       C  0.80356505  0.26210052  0.47263656     0.00260
C1686       C  0.82014759  0.27548969  0.44663736    -0.08210
C1687       C  0.80566269  0.28390256  0.41566535     0.62170
H1688       H  0.86510777  0.29047982  0.42886384     0.12870
H1689       H  0.80571467  0.25448770  0.52161876     0.12880
C1690       C  0.86046387  0.28023341  0.53863751     0.62410
F1691       F  0.80922447  0.31568887  0.41060883    -0.22760
F1692       F  0.77447638  0.27715837  0.41473725    -0.20090
F1693       F  0.82051971  0.26788983  0.39167126    -0.19770
F1694       F  0.87055521  0.31089919  0.54120796    -0.19820
F1695       F  0.88423036  0.26017901  0.54668548    -0.20140
F1696       F  0.83665360  0.27615686  0.56033889    -0.22810
C1697       C  0.19506746  0.29244153  0.50503211    -0.05650
C1698       C  0.21102564  0.27590681  0.48127071     0.00270
C1699       C  0.19441247  0.26920495  0.45334615    -0.08300
C1700       C  0.16374941  0.28121112  0.44982454    -0.05670
C1701       C  0.14766860  0.29810309  0.47357321     0.00260
C1702       C  0.16416878  0.30378397  0.50190659    -0.08210
C1703       C  0.14969131  0.32135913  0.52929609     0.62170
H1704       H  0.20705307  0.29582017  0.52686104     0.12870
H1705       H  0.15139999  0.27581247  0.42854440     0.12880
C1706       C  0.20729225  0.24731158  0.42811797     0.62410
F1707       F  0.17106499  0.32726578  0.55269316    -0.22760
F1708       F  0.12578438  0.30379985  0.54227990    -0.20090
F1709       F  0.13844967  0.34992374  0.51924629    -0.19770
F1710       F  0.20909008  0.21736085  0.43986028    -0.19820
F1711       F  0.23644481  0.25588317  0.41809990    -0.20140
F1712       F  0.18879003  0.24684956  0.40177118    -0.22810
C1713       C  0.04804451  0.25149402  0.32450089    -0.05650
C1714       C  0.02646845  0.27429810  0.33496593     0.00270
C1715       C  0.00552049  0.28635004  0.31217798    -0.08300
C1716       C  0.00719005  0.27527469  0.28074948    -0.05670
C1717       C  0.02988083  0.25371034  0.27000290     0.00260
C1718       C  0.04975164  0.24052531  0.29307480    -0.08210
C1719       C  0.07175716  0.21366533  0.28560780     0.62170
H1720       H  0.06310292  0.24104319  0.34173535     0.12870
H1721       H  0.99018666  0.28333226  0.26409289     0.12880
C1722       C  0.98125913  0.31084060  0.32045485     0.62410
F1723       F  0.09077306  0.20681005  0.31051457    -0.22760
F1724       F  0.09116145  0.22081589  0.26098122    -0.20090
F1725       F  0.05469674  0.18720648  0.27844009    -0.19770
F1726       F  0.99484938  0.33503538  0.33705759    -0.19820
F1727       F  0.95783232  0.29724077  0.33812304    -0.20140
F1728       F  0.96778289  0.32360877  0.29406234    -0.22810
C1729       C  0.00996508  0.16761222  0.36773826    -0.05650
C1730       C  0.04119383  0.17244268  0.37550886     0.00270
C1731       C  0.06507192  0.16024087  0.35579329    -0.08300
C1732       C  0.05637526  0.14074638  0.33108496    -0.05670
C1733       C  0.02510019  0.13371562  0.32518079     0.00260
C1734       C  0.00124213  0.14893320  0.34259804    -0.08210
C1735       C  0.96662236  0.14437573  0.33684353     0.62170
H1736       H  0.99204582  0.17782851  0.38238788     0.12870
H1737       H  0.07436116  0.12869696  0.31782163     0.12880
C1738       C  0.09944384  0.16244708  0.36270150     0.62410
F1739       F  0.94940491  0.16937431  0.34824954    -0.22760
F1740       F  0.95639612  0.11759404  0.35181693    -0.20090
F1741       F  0.96080380  0.14214537  0.30524898    -0.19770
F1742       F  0.10710313  0.19196013  0.37316016    -0.19820
F1743       F  0.11750966  0.15668297  0.33629054    -0.20140
F1744       F  0.10663482  0.13988595  0.38451419    -0.22810
C1745       C  0.97611377  0.17345545  0.64981419    -0.05650
C1746       C  0.00634731  0.16115689  0.65239646     0.00270
C1747       C  0.03030429  0.17297082  0.63243501    -0.08300
C1748       C  0.02297156  0.19729214  0.61234257    -0.05670
C1749       C  0.99227123  0.20710094  0.60705681     0.00260
C1750       C  0.96782513  0.19381260  0.62550549    -0.08210
C1751       C  0.93333379  0.20000304  0.62050380     0.62170
H1752       H  0.95833193  0.16559823  0.66606977     0.12870
H1753       H  0.04157875  0.20720048  0.59860725     0.12880
C1754       C  0.06298752  0.15923155  0.62979069     0.62410
F1755       F  0.91453536  0.18086453  0.63872066    -0.22760
F1756       F  0.92527244  0.19476712  0.58973778    -0.20090
F1757       F  0.92654959  0.23013512  0.62891718    -0.19770
F1758       F  0.08144546  0.17408521  0.60759950    -0.19820
F1759       F  0.06068280  0.12840159  0.62049713    -0.20140
F1760       F  0.07816517  0.16174503  0.65808562    -0.22810
C1761       C  0.25450429  0.01993834  0.62802740    -0.05650
C1762       C  0.28364604  0.02857804  0.61536686     0.00270
C1763       C  0.30460814  0.04393612  0.63533298    -0.08300
C1764       C  0.29655097  0.04746949  0.66723133    -0.05670
C1765       C  0.26843639  0.03605504  0.68089567     0.00260
C1766       C  0.24514588  0.02866089  0.65868926    -0.08210
C1767       C  0.21289932  0.04324993  0.66170333     0.62170
H1768       H  0.23715857  0.01095331  0.61258229     0.12870
H1769       H  0.31110017  0.06258069  0.67997030     0.12880
C1770       C  0.33518045  0.05714316  0.62280316     0.62410
F1771       F  0.20280614  0.05422487  0.63325092    -0.22760
F1772       F  0.21345516  0.06930728  0.68079487    -0.20090
F1773       F  0.19159137  0.02174353  0.67283590    -0.19770
F1774       F  0.32935020  0.08159883  0.60254526    -0.19820
F1775       F  0.35139419  0.03395046  0.60700148    -0.20140
F1776       F  0.35402897  0.06831102  0.64647470    -0.22810
C1777       C  0.25932411  0.18314367  0.51325189    -0.05650
C1778       C  0.27625097  0.16962462  0.48816276     0.00270
C1779       C  0.28517939  0.19000923  0.46324384    -0.08300
C1780       C  0.27497983  0.22160107  0.46346590    -0.05670
C1781       C  0.25642935  0.23450212  0.48758253     0.00260
C1782       C  0.24928137  0.21482014  0.51346048    -0.08210
C1783       C  0.23061482  0.22661501  0.54134235     0.62170
H1784       H  0.25273143  0.16825872  0.53262356     0.12870
H1785       H  0.28090165  0.23630018  0.44390153     0.12880
C1786       C  0.30562031  0.17906979  0.43632131     0.62410
F1787       F  0.23115779  0.20562189  0.56590299    -0.22760
F1788       F  0.20015834  0.23159841  0.53279998    -0.20090
F1789       F  0.24254674  0.25424472  0.55233414    -0.19770
F1790       F  0.28871903  0.15941339  0.41715437    -0.19820
F1791       F  0.33144589  0.16368938  0.44785329    -0.20140
F1792       F  0.31628905  0.20376894  0.41822910    -0.22810
C1793       C  0.28027091  0.84143385  0.43004298    -0.05650
C1794       C  0.27737661  0.82504411  0.45844864     0.00270
C1795       C  0.28582978  0.84124901  0.48643779    -0.08300
C1796       C  0.29433934  0.87325442  0.48480640    -0.05670
C1797       C  0.29592266  0.88990168  0.45641417     0.00260
C1798       C  0.29132679  0.87264739  0.42824980    -0.08210
C1799       C  0.29932878  0.88624450  0.39624976     0.62170
H1800       H  0.27283522  0.82999248  0.40886221     0.12870
H1801       H  0.29836572  0.88575976  0.50649311     0.12880
C1802       C  0.28518456  0.82711752  0.51903495     0.62410
F1803       F  0.30017628  0.86333390  0.37335132    -0.22760
F1804       F  0.32841376  0.90024215  0.39725918    -0.20090
F1805       F  0.27758697  0.90802422  0.38711882    -0.19770
F1806       F  0.31473761  0.82878840  0.53167779    -0.19820
F1807       F  0.27562580  0.79632359  0.51962551    -0.20140
F1808       F  0.26500530  0.84416035  0.53787309    -0.22810
C1809       C  0.27899255  0.99941458  0.28731244    -0.05650
C1810       C  0.26120782  0.02472682  0.27600869     0.00270
C1811       C  0.25976969  0.05223161  0.29545307    -0.08300
C1812       C  0.27610567  0.05256372  0.32419026    -0.05670
C1813       C  0.28975978  0.02547381  0.33676819     0.00260
C1814       C  0.29224012  0.99871150  0.31725071    -0.08210
C1815       C  0.30578528  0.96793058  0.32841070     0.62170
H1816       H  0.28176784  0.97902853  0.27256649     0.12870
H1817       H  0.27379025  0.07296451  0.33917022     0.12880
C1818       C  0.23924041  0.08075689  0.29011324     0.62410
F1819       F  0.31771157  0.95063368  0.30369460    -0.22760
F1820       F  0.28237172  0.95058688  0.34246853    -0.20090
F1821       F  0.32971112  0.97284102  0.34939186    -0.19770
F1822       F  0.22398921  0.08020518  0.26222238    -0.19820
F1823       F  0.25678484  0.10786516  0.29126034    -0.20140
F1824       F  0.21697458  0.08253405  0.31362315    -0.22810
C1825       C  0.18071019  0.16198542  0.47052617    -0.05650
C1826       C  0.18533306  0.15243828  0.50159183     0.00270
C1827       C  0.17085424  0.16921473  0.52627808    -0.08300
C1828       C  0.14999961  0.19295783  0.51825397    -0.05670
C1829       C  0.14074980  0.19799245  0.48712031     0.00260
C1830       C  0.15644615  0.18223574  0.46282916    -0.08210
C1831       C  0.14387839  0.18206025  0.43008257     0.62170
H1832       H  0.19279298  0.14943884  0.45198625     0.12870
H1833       H  0.13820236  0.20548592  0.53697918     0.12880
C1834       C  0.17270873  0.16110324  0.56073483     0.62410
F1835       F  0.16081144  0.16276927  0.41018649    -0.22760
F1836       F  0.14429775  0.21183898  0.41781949    -0.20090
F1837       F  0.11350418  0.17134596  0.43168620    -0.19770
F1838       F  0.17515748  0.18812305  0.57841818    -0.19820
F1839       F  0.19792303  0.14241364  0.56764607    -0.20140
F1840       F  0.14544342  0.14621941  0.56967877    -0.22810
C1841       C  0.14688215  0.03657183  0.32516459    -0.05650
C1842       C  0.11766145  0.04535894  0.33649545     0.00270
C1843       C  0.11124236  0.04376415  0.36891391    -0.08300
C1844       C  0.13316315  0.02986429  0.38841892    -0.05670
C1845       C  0.16203878  0.01896721  0.37694632     0.00260
C1846       C  0.16897680  0.02268149  0.34480676    -0.08210
C1847       C  0.19940544  0.01214196  0.33113521     0.62170
H1848       H  0.15082795  0.03739878  0.30008510     0.12870
H1849       H  0.12728326  0.02737388  0.41299658     0.12880
C1850       C  0.08085365  0.05480661  0.38364190     0.62410
F1851       F  0.20124748  0.01915156  0.29987736    -0.22760
F1852       F  0.20286117  0.98016901  0.33459049    -0.20090
F1853       F  0.22292096  0.02766555  0.34628627    -0.19770
F1854       F  0.06589592  0.02978730  0.39775511    -0.19820
F1855       F  0.06096315  0.06814729  0.36211714    -0.20140
F1856       F  0.08722008  0.07699615  0.40630029    -0.22810
C1857       C  0.12598525  0.03687320  0.60870744    -0.05650
C1858       C  0.12918284  0.01252007  0.63034584     0.00270
C1859       C  0.15191135  0.98933517  0.62532371    -0.08300
C1860       C  0.17491788  0.99543235  0.60260147    -0.05670
C1861       C  0.17497040  0.02354855  0.58509334     0.00260
C1862       C  0.14818626  0.04289871  0.58574770    -0.08210
C1863       C  0.14130309  0.06858931  0.56214290     0.62170
H1864       H  0.10624844  0.05229946  0.61095431     0.12870
H1865       H  0.19397832  0.97906617  0.59975322     0.12880
C1866       C  0.15230377  0.95917443  0.64395134     0.62410
F1867       F  0.11433927  0.08494461  0.56952207    -0.22760
F1868       F  0.13698736  0.05552592  0.53299891    -0.20090
F1869       F  0.16506687  0.09005468  0.56092146    -0.19770
F1870       F  0.12520093  0.94257398  0.63840282    -0.19820
F1871       F  0.15417510  0.96564559  0.67551974    -0.20140
F1872       F  0.17733805  0.94036220  0.63571466    -0.22810
C1873       C  0.75644346  0.16160798  0.45654964    -0.05650
C1874       C  0.74308753  0.15119306  0.48482333     0.00270
C1875       C  0.73733027  0.17384727  0.50845835    -0.08300
C1876       C  0.74871157  0.20471891  0.50439627    -0.05670
C1877       C  0.76209252  0.21575848  0.47612250     0.00260
C1878       C  0.76540024  0.19326468  0.45142685    -0.08210
C1879       C  0.77804229  0.20189827  0.41947932     0.62170
H1880       H  0.76072057  0.14429228  0.43852477     0.12870
H1881       H  0.74728017  0.22040204  0.52393468     0.12880
C1882       C  0.72035089  0.16550912  0.53862856     0.62410
F1883       F  0.78032921  0.17628349  0.39969559    -0.22760
F1884       F  0.80754277  0.21433951  0.42235252    -0.20090
F1885       F  0.75820500  0.22300131  0.40560516    -0.19770
F1886       F  0.74076650  0.15191917  0.55945254    -0.19820
F1887       F  0.69597654  0.14514870  0.53265488    -0.20140
F1888       F  0.70770418  0.19169711  0.55265234    -0.22810
C1889       C  0.74084238  0.00511938  0.30609184    -0.05650
C1890       C  0.76652065  0.98968591  0.29154978     0.00270
C1891       C  0.78448015  0.97021323  0.31264842    -0.08300
C1892       C  0.77768616  0.97058066  0.34533867    -0.05670
C1893       C  0.75134060  0.98526428  0.35821219     0.00260
C1894       C  0.73093960  0.99980333  0.33733423    -0.08210
C1895       C  0.69773889  0.00715514  0.34718805     0.62170
H1896       H  0.72885459  0.02313840  0.29418678     0.12870
H1897       H  0.79319651  0.95904748  0.36147181     0.12880
C1898       C  0.81008723  0.94771476  0.30251802     0.62410
F1899       F  0.67838506  0.00782110  0.32156011    -0.22760
F1900       F  0.69637888  0.03575591  0.36214044    -0.20090
F1901       F  0.68649187  0.98408078  0.36706107    -0.19770
F1902       F  0.83559050  0.96389166  0.29144148    -0.19820
F1903       F  0.79865693  0.92730025  0.28039549    -0.20140
F1904       F  0.82069432  0.92939095  0.32694430    -0.22810
C1905       C  0.74793026  0.00237058  0.65067833    -0.05650
C1906       C  0.74604311  0.03125277  0.63507171     0.00270
C1907       C  0.75542211  0.05847545  0.65216697    -0.08300
C1908       C  0.76896685  0.05494645  0.68222376    -0.05670
C1909       C  0.77305154  0.02570080  0.69699722     0.00260
C1910       C  0.76250983  0.99879056  0.68005591    -0.08210
C1911       C  0.76865195  0.96525839  0.68936809     0.62170
H1912       H  0.74060135  0.98139668  0.63845269     0.12870
H1913       H  0.77503907  0.07567446  0.69518492     0.12880
C1914       C  0.74970245  0.09154119  0.64020574     0.62410
F1915       F  0.78402583  0.94988818  0.66525555    -0.22760
F1916       F  0.74068469  0.95006440  0.69480229    -0.20090
F1917       F  0.78713511  0.96307804  0.71520617    -0.19770
F1918       F  0.71945458  0.09413263  0.62952371    -0.19820
F1919       F  0.77028269  0.09880311  0.61636035    -0.20140
F1920       F  0.75364040  0.11378914  0.66343903    -0.22810
C1921       C  0.75937680  0.82339132  0.52481279    -0.05650
C1922       C  0.77271046  0.80944039  0.49775379     0.00270
C1923       C  0.76616505  0.82492783  0.46882733    -0.08300
C1924       C  0.74933493  0.85356329  0.46898062    -0.05670
C1925       C  0.74276778  0.87045569  0.49673639     0.00260
C1926       C  0.74645455  0.85403577  0.52531881    -0.08210
C1927       C  0.73773197  0.86877467  0.55650255     0.62170
H1928       H  0.76043305  0.81092819  0.54637766     0.12870
H1929       H  0.74528131  0.86499698  0.44675723     0.12880
C1930       C  0.77865757  0.81449162  0.43712614     0.62410
F1931       F  0.74041683  0.84786707  0.58104256    -0.22760
F1932       F  0.70710845  0.87886175  0.55572374    -0.20090
F1933       F  0.75723902  0.89381473  0.56257824    -0.19770
F1934       F  0.75455465  0.80355947  0.41893616    -0.19820
F1935       F  0.80132129  0.79186003  0.43960293    -0.20140
F1936       F  0.79198379  0.83959513  0.42154698    -0.22810
C1937       C  0.88857612  0.11842742  0.52711399    -0.05650
C1938       C  0.85758223  0.12849851  0.52841804     0.00270
C1939       C  0.85074846  0.16029609  0.53362079    -0.08300
C1940       C  0.87481755  0.18201241  0.52982643    -0.05670
C1941       C  0.90508709  0.17197850  0.52267856     0.00260
C1942       C  0.91289106  0.13986302  0.52493390    -0.08210
C1943       C  0.94623721  0.12787217  0.52439595     0.62170
H1944       H  0.89348963  0.09356968  0.52557505     0.12870
H1945       H  0.86955146  0.20673237  0.52954170     0.12880
C1946       C  0.81799342  0.17118166  0.53962878     0.62410
F1947       F  0.94803091  0.09773911  0.53609112    -0.22760
F1948       F  0.96488418  0.14677492  0.54272118    -0.20090
F1949       F  0.95764664  0.12728845  0.49415363    -0.19770
F1950       F  0.80596191  0.15643002  0.56583602    -0.19820
F1951       F  0.80065847  0.16369031  0.51383133    -0.20140
F1952       F  0.81634945  0.20309525  0.54458869    -0.22810
C1953       C  0.85279725  0.00010723  0.36685045    -0.05650
C1954       C  0.86048109  0.97693484  0.38822483     0.00270
C1955       C  0.88160870  0.95282968  0.38017406    -0.08300
C1956       C  0.89492718  0.95344259  0.35011000    -0.05670
C1957       C  0.88926913  0.97856653  0.32978190     0.00260
C1958       C  0.86732807  0.00186643  0.33804194    -0.08210
C1959       C  0.85946364  0.03003709  0.31835319     0.62170
H1960       H  0.83598236  0.01807739  0.37330740     0.12870
H1961       H  0.91265693  0.93632538  0.34400934     0.12880
C1962       C  0.89278860  0.92791727  0.40259546     0.62410
F1963       F  0.82745757  0.03152956  0.31487516    -0.22760
F1964       F  0.87305640  0.02884018  0.28912080    -0.20090
F1965       F  0.86951536  0.05691536  0.33331490    -0.19770
F1966       F  0.88500609  0.89872565  0.39101060    -0.19820
F1967       F  0.88016188  0.93113924  0.43222554    -0.20140
F1968       F  0.92490166  0.92973523  0.40510344    -0.22810
C1969       C  0.87779108  0.04134317  0.66226583    -0.05650
C1970       C  0.89946733  0.06380053  0.65340589     0.00270
C1971       C  0.89337489  0.08457640  0.62871962    -0.08300
C1972       C  0.86459438  0.08210985  0.61342597    -0.05670
C1973       C  0.84488685  0.05637710  0.61926285     0.00260
C1974       C  0.85184902  0.03547222  0.64409460    -0.08210
C1975       C  0.83732216  0.00352137  0.64869647     0.62170
H1976       H  0.88364670  0.02515433  0.68090070     0.12870
H1977       H  0.86001603  0.09681483  0.59334391     0.12880
C1978       C  0.91891856  0.10528927  0.61568091     0.62410
F1979       F  0.85780483  0.98101591  0.63764924    -0.22760
F1980       F  0.80948757  0.00029394  0.63334180    -0.20090
F1981       F  0.83228001  0.99815165  0.68016418    -0.19770
F1982       F  0.94132259  0.08686339  0.60123821    -0.19820
F1983       F  0.93263941  0.12175274  0.63957829    -0.20140
F1984       F  0.90760468  0.12648363  0.59420655    -0.22810
C1985       C  0.18075138  0.75911548  0.44809140    -0.05650
C1986       C  0.16513393  0.77442682  0.47252852     0.00270
C1987       C  0.18216889  0.79653130  0.49045926    -0.08300
C1988       C  0.21434206  0.80110841  0.48424134    -0.05670
C1989       C  0.23065684  0.78531112  0.46015250     0.00260
C1990       C  0.21235343  0.76521934  0.44050555    -0.08210
C1991       C  0.22296781  0.75192346  0.40951667     0.62170
H1992       H  0.16742050  0.74340675  0.43335281     0.12870
H1993       H  0.22678784  0.81787063  0.49816466     0.12880
C1994       C  0.16607668  0.81681167  0.51483707     0.62410
F1995       F  0.22527577  0.71973491  0.41155849    -0.22760
F1996       F  0.25082073  0.76418787  0.40004143    -0.20090
F1997       F  0.20144763  0.75921613  0.38667292    -0.19770
F1998       F  0.15476741  0.79842417  0.53895232    -0.19820
F1999       F  0.14174792  0.83261711  0.50099637    -0.20140
F2000       F  0.18599675  0.83885332  0.52760362    -0.22810
C2001       C  0.99314023  0.74419768  0.34669406    -0.05650
C2002       C  0.02251856  0.75017622  0.36002421     0.00270
C2003       C  0.04723562  0.75864250  0.33846587    -0.08300
C2004       C  0.03983625  0.76266887  0.30623397    -0.05670
C2005       C  0.01090396  0.75320260  0.29382530     0.00260
C2006       C  0.99287917  0.73407196  0.31530879    -0.08210
C2007       C  0.99997585  0.69863227  0.31696137     0.62170
H2008       H  0.97436440  0.73631687  0.36189688     0.12870
H2009       H  0.05720345  0.77188817  0.29056353     0.12880
C2010       C  0.08106444  0.76311650  0.34820813     0.62410
F2011       F  0.00845727  0.68789991  0.34646164    -0.22760
F2012       F  0.02483763  0.69118732  0.29802972    -0.20090
F2013       F  0.97401494  0.68163404  0.30947940    -0.19770
F2014       F  0.09204512  0.73588626  0.36165269    -0.19820
F2015       F  0.08369289  0.78761381  0.36911902    -0.20140
F2016       F  0.10031688  0.76983904  0.32293272    -0.22810
C2017       C  0.04494615  0.75228224  0.65919539    -0.05650
C2018       C  0.04334807  0.77686367  0.63755893     0.00270
C2019       C  0.05175950  0.80699922  0.64905410    -0.08300
C2020       C  0.04905247  0.81296060  0.68143995    -0.05670
C2021       C  0.04952805  0.78821012  0.70321649     0.00260
C2022       C  0.05657180  0.75842756  0.68966104    -0.08210
C2023       C  0.08955057  0.74635089  0.69300003     0.62170
H2024       H  0.04440114  0.72848644  0.65040558     0.12870
H2025       H  0.04883598  0.83698381  0.68929109     0.12880
C2026       C  0.06884294  0.83046366  0.62896096     0.62410
F2027       F  0.10894995  0.76231746  0.67245948    -0.22760
F2028       F  0.09062357  0.71496982  0.68542788    -0.20090
F2029       F  0.10115814  0.75065852  0.72258966    -0.19770
F2030       F  0.04961073  0.84157134  0.60653506    -0.19820
F2031       F  0.07955421  0.85573066  0.64617435    -0.20140
F2032       F  0.09425046  0.81619132  0.61484320    -0.22810
C2033       C  0.87184564  0.77204770  0.53682441    -0.05650
C2034       C  0.88743048  0.75065771  0.51705135     0.00270
C2035       C  0.86929681  0.73744826  0.49262481    -0.08300
C2036       C  0.83883377  0.74907713  0.48660195    -0.05670
C2037       C  0.82230212  0.76981222  0.50655645     0.00260
C2038       C  0.84010172  0.78159753  0.53266876    -0.08210
C2039       C  0.82718266  0.80468213  0.55645035     0.62170
H2040       H  0.88538274  0.78231781  0.55543371     0.12870
H2041       H  0.82772807  0.74169041  0.46544645     0.12880
C2042       C  0.88142608  0.71084555  0.47246148     0.62410
F2043       F  0.84885116  0.81296221  0.57887009    -0.22760
F2044       F  0.80238001  0.79140284  0.57219452    -0.20090
F2045       F  0.81858027  0.83199213  0.54173865    -0.19770
F2046       F  0.89929073  0.69046544  0.48995567    -0.19820
F2047       F  0.89884702  0.72285575  0.44797751    -0.20140
F2048       F  0.85723197  0.69349502  0.46019407    -0.22810
C2049       C  0.87905854  0.84938631  0.50822713    -0.05650
C2050       C  0.90290179  0.85895861  0.52818032     0.00270
C2051       C  0.90730533  0.89087883  0.53506117    -0.08300
C2052       C  0.88779687  0.91233596  0.52116323    -0.05670
C2053       C  0.86411085  0.90271968  0.50104294     0.00260
C2054       C  0.86093847  0.87131101  0.49281189    -0.08210
C2055       C  0.83950691  0.86147254  0.46725626     0.62170
H2056       H  0.87816615  0.82509287  0.50103569     0.12870
H2057       H  0.89027459  0.93690334  0.52654530     0.12880
C2058       C  0.93435601  0.90243584  0.55427457     0.62410
F2059       F  0.84021800  0.82947303  0.46293946    -0.22760
F2060       F  0.84824433  0.87564309  0.43954614    -0.20090
F2061       F  0.80987171  0.87069281  0.47513133    -0.19770
F2062       F  0.96164002  0.89818891  0.53742236    -0.19820
F2063       F  0.93524532  0.88580919  0.58185648    -0.20140
F2064       F  0.93184722  0.93392602  0.56165279    -0.22810
C2065       C  0.15061846  0.86667207  0.42403588    -0.05650
C2066       C  0.12100524  0.87908998  0.42998909     0.00270
C2067       C  0.11646173  0.91185218  0.43134734    -0.08300
C2068       C  0.14257833  0.93089835  0.43132744    -0.05670
C2069       C  0.17239829  0.91799227  0.43142649     0.00260
C2070       C  0.17690831  0.88583129  0.42576791    -0.08210
C2071       C  0.20896989  0.87170057  0.42420698     0.62170
H2072       H  0.15335712  0.84148532  0.42253916     0.12870
H2073       H  0.13968056  0.95597262  0.43448769     0.12880
C2074       C  0.08530897  0.92792742  0.43559727     0.62410
F2075       F  0.20801621  0.83962402  0.41979483    -0.22760
F2076       F  0.22446473  0.87789182  0.45177636    -0.20090
F2077       F  0.22483870  0.88466647  0.39927363    -0.19770
F2078       F  0.08381620  0.94136515  0.46501730    -0.19820
F2079       F  0.06055594  0.90769867  0.43222646    -0.20140
F2080       F  0.08257598  0.95137142  0.41352284    -0.22810
C2081       C  0.96652839  0.87036441  0.33324287    -0.05650
C2082       C  0.98058318  0.89886410  0.34013957     0.00270
C2083       C  0.99685378  0.90214922  0.36854493    -0.08300
C2084       C  0.00853161  0.87537436  0.38227849    -0.05670
C2085       C  0.99756025  0.84596270  0.37367269     0.00260
C2086       C  0.97235728  0.84415318  0.35215161    -0.08210
C2087       C  0.95559194  0.81442825  0.34417454     0.62170
H2088       H  0.95273179  0.86816876  0.31221302     0.12870
H2089       H  0.02502750  0.87762887  0.40103129     0.12880
C2090       C  0.00482515  0.93345198  0.38287217     0.62410
F2091       F  0.92721403  0.82067671  0.33027435    -0.22760
F2092       F  0.94945917  0.79608354  0.36999898    -0.20090
F2093       F  0.97423837  0.79872125  0.32341668    -0.19770
F2094       F  0.98601241  0.95690031  0.37119652    -0.19820
F2095       F  0.03580168  0.93987507  0.37675788    -0.20140
F2096       F  0.00029073  0.93289417  0.41484559    -0.22810
C2097       C  0.01287379  0.91763053  0.58808139    -0.05650
C2098       C  0.00100703  0.88890504  0.59884459     0.00270
C2099       C  0.99989859  0.88320774  0.63155260    -0.08300
C2100       C  0.01624535  0.90386778  0.65134530    -0.05670
C2101       C  0.03293821  0.92945682  0.63912876     0.00260
C2102       C  0.03187949  0.93597789  0.60676374    -0.08210
C2103       C  0.05160213  0.96077841  0.59031849     0.62170
H2104       H  0.01196628  0.92302584  0.56330536     0.12870
H2105       H  0.01540834  0.90077206  0.67649206     0.12880
C2106       C  0.98020239  0.85716748  0.64569652     0.62410
F2107       F  0.06568123  0.94790028  0.56405126    -0.22760
F2108       F  0.07521637  0.97234240  0.60880298    -0.20090
F2109       F  0.03277032  0.98525069  0.58105504    -0.19770
F2110       F  0.98078046  0.85782195  0.67807925    -0.19820
F2111       F  0.99066615  0.82821141  0.63617007    -0.20140
F2112       F  0.94959239  0.86066775  0.63651907    -0.22810
C2113       C  0.76600373  0.18375983  0.02556740    -0.05650
C2114       C  0.76902037  0.16921428  0.99605343     0.00270
C2115       C  0.76152992  0.18775924  0.96908522    -0.08300
C2116       C  0.75061132  0.21877654  0.97320790    -0.05670
C2117       C  0.74885375  0.23351496  0.00246053     0.00260
C2118       C  0.75615196  0.21526007  0.02938319    -0.08210
C2119       C  0.75294883  0.22674562  0.06286137     0.62170
H2120       H  0.77095115  0.17017051  0.04632930     0.12870
H2121       H  0.74406852  0.23256792  0.95308500     0.12880
C2122       C  0.76535756  0.17596396  0.93558476     0.62410
F2123       F  0.73260841  0.20728989  0.07894178    -0.22760
F2124       F  0.74153838  0.25686475  0.06517869    -0.20090
F2125       F  0.78173002  0.22550766  0.07719868    -0.19770
F2126       F  0.74434300  0.15215506  0.92969896    -0.19820
F2127       F  0.79553907  0.16544174  0.93082026    -0.20140
F2128       F  0.76000209  0.19922245  0.91375633    -0.22810
C2129       C  0.78349874  0.87728792  0.02287855    -0.05650
C2130       C  0.79943007  0.89240018  0.99780983     0.00270
C2131       C  0.80807460  0.87327147  0.97191664    -0.08300
C2132       C  0.79847385  0.84134744  0.97117493    -0.05670
C2133       C  0.77985269  0.82728264  0.99479855     0.00260
C2134       C  0.77345174  0.84555847  0.02191808    -0.08210
C2135       C  0.75602294  0.83205476  0.05011329     0.62170
H2136       H  0.77736602  0.89105263  0.04324390     0.12870
H2137       H  0.80467498  0.82720897  0.95120953     0.12880
C2138       C  0.82764219  0.88602361  0.94514698     0.62410
F2139       F  0.75468914  0.85305815  0.07478830    -0.22760
F2140       F  0.77049386  0.80536975  0.06075016    -0.20090
F2141       F  0.72580767  0.82461546  0.04224630    -0.19770
F2142       F  0.85333513  0.90167944  0.95679809    -0.19820
F2143       F  0.80996336  0.90623317  0.92740476    -0.20140
F2144       F  0.83842164  0.86239820  0.92567154    -0.22810
C2145       C  0.78134645  0.06566692  0.83490363    -0.05650
C2146       C  0.77552682  0.04052644  0.85534624     0.00270
C2147       C  0.76231025  0.01299541  0.84223837    -0.08300
C2148       C  0.75723751  0.01113384  0.80975336    -0.05670
C2149       C  0.76364518  0.03546080  0.78864865     0.00260
C2150       C  0.77533314  0.06396864  0.80214353    -0.08210
C2151       C  0.78070993  0.09406306  0.78430511     0.62170
H2152       H  0.79022442  0.08729102  0.84474307     0.12870
H2153       H  0.74896399  0.98952469  0.80079174     0.12880
C2154       C  0.75186558  0.98572095  0.86247886     0.62410
F2155       F  0.76332412  0.11779817  0.79790529    -0.22760
F2156       F  0.77232750  0.09205830  0.75342300    -0.20090
F2157       F  0.81187856  0.10210736  0.78600348    -0.19770
F2158       F  0.73392846  0.99683426  0.88685467    -0.19820
F2159       F  0.77748047  0.97016862  0.87407837    -0.20140
F2160       F  0.73392528  0.96429672  0.84620385    -0.22810
C2161       C  0.77426355  0.97849790  0.18227430    -0.05650
C2162       C  0.76107460  0.00455895  0.19794189     0.00270
C2163       C  0.75991124  0.03328374  0.18048783    -0.08300
C2164       C  0.77347040  0.03460974  0.15001423    -0.05670
C2165       C  0.78587816  0.00827300  0.13460547     0.00260
C2166       C  0.78730995  0.97988068  0.15170710    -0.08210
C2167       C  0.80259952  0.95081445  0.13797307     0.62170
H2168       H  0.77377826  0.95623102  0.19403622     0.12870
H2169       H  0.77147772  0.05584995  0.13643603     0.12880
C2170       C  0.74133982  0.06173152  0.19103909     0.62410
F2171       F  0.80965097  0.92932091  0.16096874    -0.22760
F2172       F  0.83015350  0.95885367  0.12292909    -0.20090
F2173       F  0.78288827  0.93633943  0.11699842    -0.19770
F2174       F  0.74558554  0.08710696  0.17132913    -0.19820
F2175       F  0.75016241  0.07134665  0.22031626    -0.20140
F2176       F  0.70994319  0.05452807  0.19084786    -0.22810
C2177       C  0.26441377  0.86141147  0.96672913    -0.05650
C2178       C  0.25584838  0.87735378  0.99438800     0.00270
C2179       C  0.25563420  0.85976682  0.02263328    -0.08300
C2180       C  0.26781408  0.82893993  0.02273331    -0.05670
C2181       C  0.27929789  0.81385049  0.99565994     0.00260
C2182       C  0.27541952  0.83004738  0.96662841    -0.08210
C2183       C  0.28262905  0.81628141  0.93465324     0.62170
H2184       H  0.26422701  0.87416838  0.94482799     0.12870
H2185       H  0.26943874  0.81679098  0.04466490     0.12880
C2186       C  0.24388588  0.87345895  0.05326997     0.62410
F2187       F  0.30798949  0.83154882  0.92156453    -0.22760
F2188       F  0.25726886  0.82056632  0.91533883    -0.20090
F2189       F  0.28883359  0.78477203  0.93544566    -0.19770
F2190       F  0.21897869  0.89333418  0.04815909    -0.19820
F2191       F  0.26768868  0.88973325  0.06770152    -0.20140
F2192       F  0.23368791  0.85007737  0.07329599    -0.22810
C2193       C  0.23498154  0.17126662  0.94147491    -0.05650
C2194       C  0.23992698  0.15654370  0.97041713     0.00270
C2195       C  0.25046210  0.17592178  0.99540502    -0.08300
C2196       C  0.25884778  0.20777365  0.98923269    -0.05670
C2197       C  0.25514038  0.22225488  0.95972410     0.00260
C2198       C  0.24120238  0.20334123  0.93586355    -0.08210
C2199       C  0.23233793  0.21448745  0.90360885     0.62170
H2200       H  0.22600481  0.15725586  0.92236422     0.12870
H2201       H  0.26707936  0.22234893  0.00809763     0.12880
C2202       C  0.25242951  0.16352181  0.02863247     0.62410
F2203       F  0.24881222  0.19767018  0.88126845    -0.22760
F2204       F  0.23824219  0.24549774  0.89904219    -0.20090
F2205       F  0.20076021  0.20960180  0.89920598    -0.19770
F2206       F  0.27325073  0.13892583  0.03023293    -0.19820
F2207       F  0.22329882  0.15329286  0.03823975    -0.20140
F2208       F  0.26212288  0.18634769  0.04943225    -0.22810
C2209       C  0.27270147  0.99993464  0.82466505    -0.05650
C2210       C  0.26090465  0.02684021  0.83954242     0.00270
C2211       C  0.25880954  0.05466219  0.82094060    -0.08300
C2212       C  0.26828042  0.05388831  0.78907432    -0.05670
C2213       C  0.27947122  0.02689373  0.77384697     0.00260
C2214       C  0.28168490  0.99913338  0.79259262    -0.08210
C2215       C  0.29363894  0.96774890  0.78136953     0.62170
H2216       H  0.27541013  0.97888921  0.83851621     0.12870
H2217       H  0.26695150  0.07500770  0.77541216     0.12880
C2218       C  0.24693876  0.08567752  0.83400327     0.62410
F2219       F  0.32205467  0.96172406  0.79520846    -0.22760
F2220       F  0.29730607  0.96614576  0.74968229    -0.20090
F2221       F  0.27282200  0.94445454  0.78995312    -0.19770
F2222       F  0.26818859  0.09772622  0.85504319    -0.19820
F2223       F  0.21831059  0.08137857  0.84853227    -0.20140
F2224       F  0.24294082  0.10791385  0.81085551    -0.22810
C2225       C  0.25668766  0.04181861  0.16732959    -0.05650
C2226       C  0.26310414  0.01501230  0.18505786     0.00270
C2227       C  0.25970770  0.98533551  0.17013392    -0.08300
C2228       C  0.25219273  0.98412173  0.13799160    -0.05670
C2229       C  0.24537161  0.01100762  0.12026662     0.00260
C2230       C  0.24639143  0.04052677  0.13600973    -0.08210
C2231       C  0.23675577  0.07094084  0.12049243     0.62170
H2232       H  0.25954758  0.06428951  0.17846864     0.12870
H2233       H  0.25170336  0.96148634  0.12649669     0.12880
C2234       C  0.26481570  0.95410800  0.18601912     0.62410
F2235       F  0.23769880  0.09610528  0.14092882    -0.22760
F2236       F  0.20641431  0.06823105  0.11011174    -0.20090
F2237       F  0.25650720  0.07772774  0.09576013    -0.19770
F2238       F  0.24163628  0.93331487  0.17737653    -0.19820
F2239       F  0.26406212  0.95626778  0.21814768    -0.20140
F2240       F  0.29328897  0.94203186  0.17651575    -0.22810
C2241       C  0.52349053  0.20195154  0.22815734    -0.05650
C2242       C  0.49408153  0.21637844  0.23224155     0.00270
C2243       C  0.47079800  0.19875490  0.24865957    -0.08300
C2244       C  0.47782047  0.16893267  0.26048457    -0.05670
C2245       C  0.50623055  0.15368851  0.25471335     0.00260
C2246       C  0.53010837  0.17112440  0.23913026    -0.08210
C2247       C  0.56261753  0.15781647  0.23458188     0.62170
H2248       H  0.54156456  0.21534595  0.21646761     0.12870
H2249       H  0.45953970  0.15635874  0.27287757     0.12880
C2250       C  0.43716361  0.20822467  0.25252488     0.62410
F2251       F  0.58236445  0.17878376  0.21968256    -0.22760
F2252       F  0.56154267  0.13091534  0.21666072    -0.20090
F2253       F  0.57519415  0.15093237  0.26344401    -0.19770
F2254       F  0.41795933  0.18463964  0.24148883    -0.19820
F2255       F  0.43052032  0.23451960  0.23592431    -0.20140
F2256       F  0.43050418  0.21312512  0.28385189    -0.22810
C2257       C  0.50946698  0.86485100  0.22094145    -0.05650
C2258       C  0.50894102  0.87380453  0.25248150     0.00270
C2259       C  0.49887328  0.85101202  0.27411093    -0.08300
C2260       C  0.49476938  0.81943500  0.26357025    -0.05670
C2261       C  0.50076858  0.80963405  0.23202726     0.00260
C2262       C  0.49984281  0.83494307  0.21073388    -0.08210
C2263       C  0.47516462  0.83494556  0.18562161     0.62170
H2264       H  0.51157115  0.88312340  0.20409607     0.12870
H2265       H  0.48471060  0.80333647  0.27977192     0.12880
C2266       C  0.49258888  0.86022450  0.30775138     0.62410
F2267       F  0.46695545  0.86492225  0.17681843    -0.22760
F2268       F  0.44823455  0.82150654  0.19721299    -0.20090
F2269       F  0.48527733  0.81898604  0.15966040    -0.19770
F2270       F  0.46804491  0.88113765  0.30912261    -0.19820
F2271       F  0.51889271  0.87404098  0.32025799    -0.20140
F2272       F  0.48482455  0.83478439  0.32594905    -0.22810
C2273       C  0.35296780  0.05020099  0.24799483    -0.05650
C2274       C  0.37036337  0.02236559  0.25030860     0.00270
C2275       C  0.35498203  0.99391861  0.24219487    -0.08300
C2276       C  0.32471422  0.99510445  0.22921116    -0.05670
C2277       C  0.30693826  0.02274255  0.22735594     0.00260
C2278       C  0.32167036  0.05100367  0.23766338    -0.08210
C2279       C  0.30656043  0.08311588  0.23782305     0.62170
H2280       H  0.36403844  0.07211475  0.25433282     0.12870
H2281       H  0.31422598  0.97361837  0.22188892     0.12880
C2282       C  0.36947304  0.96200559  0.24804708     0.62410
F2283       F  0.30887164  0.09564006  0.26749753    -0.22760
F2284       F  0.27574516  0.08258497  0.22919310    -0.20090
F2285       F  0.32215033  0.10300020  0.21764837    -0.19770
F2286       F  0.37779063  0.95980550  0.27916394    -0.19820
F2287       F  0.39538320  0.95777120  0.22906306    -0.20140
F2288       F  0.34891832  0.93773957  0.24204340    -0.22810
C2289       C  0.66563208  0.97146995  0.24887937    -0.05650
C2290       C  0.64983337  0.99961562  0.25648766     0.00270
C2291       C  0.66801233  0.02761171  0.25682524    -0.08300
C2292       C  0.69973102  0.02637806  0.24764627    -0.05670
C2293       C  0.71563823  0.99856451  0.24007584     0.00260
C2294       C  0.69801683  0.97029917  0.24120488    -0.08210
C2295       C  0.71282799  0.93887802  0.23369608     0.62170
H2296       H  0.65218002  0.95004184  0.24842727     0.12870
H2297       H  0.71328742  0.04737411  0.24920681     0.12880
C2298       C  0.65494368  0.05897710  0.26761636     0.62410
F2299       F  0.69254518  0.91426765  0.23939466    -0.22760
F2300       F  0.73893730  0.93439775  0.25183968    -0.20090
F2301       F  0.72121618  0.93765067  0.20252133    -0.19770
F2302       F  0.64234189  0.05598743  0.29734861    -0.19820
F2303       F  0.63245588  0.06914332  0.24699269    -0.20140
F2304       F  0.67764793  0.08200441  0.26914725    -0.22810
C2305       C  0.35097801  0.03684853  0.11691108    -0.05650
C2306       C  0.36426957  0.01665128  0.09481260     0.00270
C2307       C  0.39604671  0.00878394  0.09687401    -0.08300
C2308       C  0.41257460  0.01889288  0.12297588    -0.05670
C2309       C  0.39885388  0.03690439  0.14663716     0.00260
C2310       C  0.36816713  0.04802798  0.14240722    -0.08210
C2311       C  0.35247480  0.07187615  0.16283835     0.62170
H2312       H  0.32714834  0.04472445  0.11370919     0.12870
H2313       H  0.43617303  0.01154754  0.12598939     0.12880
C2314       C  0.41177480  0.98806194  0.07285125     0.62410
F2315       F  0.34649829  0.09839953  0.14539542    -0.22760
F2316       F  0.37029117  0.08036919  0.18816705    -0.20090
F2317       F  0.32445620  0.05964592  0.17300763    -0.19770
F2318       F  0.41054911  0.00170650  0.04358965    -0.19820
F2319       F  0.39655566  0.95955767  0.07265331    -0.20140
F2320       F  0.44284126  0.98294523  0.07957677    -0.22810
C2321       C  0.64706349  0.97487999  0.14964009    -0.05650
C2322       C  0.61676804  0.97327074  0.13826709     0.00270
C2323       C  0.61124785  0.96561838  0.10659345    -0.08300
C2324       C  0.63698922  0.96339484  0.08636779    -0.05670
C2325       C  0.66719180  0.96943542  0.09710371     0.00260
C2326       C  0.67248258  0.97435639  0.12916765    -0.08210
C2327       C  0.70439306  0.98253989  0.14107166     0.62170
H2328       H  0.65041444  0.98008994  0.17422815     0.12870
H2329       H  0.63322591  0.95997976  0.06151840     0.12880
C2330       C  0.57917409  0.96038030  0.09285750     0.62410
F2331       F  0.70368634  0.98819393  0.17277745    -0.22760
F2332       F  0.71520157  0.00930923  0.12652603    -0.20090
F2333       F  0.72439974  0.95795953  0.13496388    -0.19770
F2334       F  0.57361019  0.98270963  0.07019622    -0.19820
F2335       F  0.55550676  0.96178945  0.11487093    -0.20140
F2336       F  0.57825763  0.93106666  0.07919893    -0.22810
C2337       C  0.68668154  0.25663586  0.02427187    -0.05650
C2338       C  0.70600210  0.27713244  0.00682189     0.00270
C2339       C  0.68938520  0.30328268  0.99394500    -0.08300
C2340       C  0.65858592  0.29695041  0.98374993    -0.05670
C2341       C  0.63872862  0.28065325  0.00461276     0.00260
C2342       C  0.65421963  0.26196844  0.02782353    -0.08210
C2343       C  0.63886068  0.25054112  0.05794725     0.62170
H2344       H  0.69684112  0.23736891  0.03672567     0.12870
H2345       H  0.64800797  0.31316691  0.96751300     0.12880
C2346       C  0.68879712  0.33381912  0.01282002     0.62410
F2347       F  0.66031898  0.23740054  0.07811323    -0.22760
F2348       F  0.61664143  0.22821462  0.05211074    -0.20090
F2349       F  0.62526790  0.27558900  0.07335097    -0.19770
F2350       F  0.70043927  0.35770791  0.99483538    -0.19820
F2351       F  0.70501157  0.33085706  0.04043756    -0.20140
F2352       F  0.65884254  0.34288505  0.02160724    -0.22810
C2353       C  0.35072101  0.28097606  0.94212569    -0.05650
C2354       C  0.36019126  0.29388265  0.97121088     0.00270
C2355       C  0.33706198  0.29498406  0.99530379    -0.08300
C2356       C  0.30716881  0.28105684  0.99013321    -0.05670
C2357       C  0.29830132  0.26719612  0.96136350     0.00260
C2358       C  0.32124728  0.26644732  0.93715182    -0.08210
C2359       C  0.31621248  0.24826792  0.90683283     0.62170
H2360       H  0.36744389  0.28081351  0.92307746     0.12870
H2361       H  0.29002894  0.28113252  0.00882087     0.12880
C2362       C  0.34296937  0.31229341  0.02576912     0.62410
F2363       F  0.34370658  0.24453408  0.89007936    -0.22760
F2364       F  0.29584521  0.26309535  0.88745190    -0.20090
F2365       F  0.30431797  0.21902937  0.91327406    -0.19770
F2366       F  0.35315053  0.34233638  0.01926858    -0.19820
F2367       F  0.36519528  0.29712289  0.04332415    -0.20140
F2368       F  0.31617263  0.31447108  0.04389831    -0.22810
C2369       C  0.47735619  0.30639829  0.82832364    -0.05650
C2370       C  0.50253021  0.29670065  0.84661928     0.00270
C2371       C  0.52716944  0.28000237  0.83140928    -0.08300
C2372       C  0.52399945  0.27134731  0.79952645    -0.05670
C2373       C  0.49811663  0.28000904  0.78144429     0.00260
C2374       C  0.47446369  0.29845100  0.79645888    -0.08210
C2375       C  0.44487553  0.30964589  0.78117302     0.62170
H2376       H  0.45876119  0.31961193  0.83950784     0.12870
H2377       H  0.54246690  0.25838639  0.78798238     0.12880
C2378       C  0.55704447  0.27158249  0.84822275     0.62410
F2379       F  0.41929341  0.30134501  0.79931134    -0.22760
F2380       F  0.44080567  0.29671321  0.75230390    -0.20090
F2381       F  0.44564275  0.34188163  0.77842978    -0.19770
F2382       F  0.55055368  0.25252746  0.87342623    -0.19820
F2383       F  0.57147496  0.29863049  0.85846481    -0.20140
F2384       F  0.57790297  0.25584869  0.82896293    -0.22810
C2385       C  0.47820956  0.26322930  0.13216308    -0.05650
C2386       C  0.50471391  0.28060760  0.12384048     0.00270
C2387       C  0.52763116  0.28592821  0.14694141    -0.08300
C2388       C  0.52249208  0.27448094  0.17772754    -0.05670
C2389       C  0.49509529  0.25817343  0.18667711     0.00260
C2390       C  0.47326188  0.25090566  0.16245003    -0.08210
C2391       C  0.44460955  0.23031313  0.16691501     0.62170
H2392       H  0.46138096  0.25849049  0.11398836     0.12870
H2393       H  0.54010517  0.27824490  0.19530867     0.12880
C2394       C  0.55687852  0.30448434  0.13941238     0.62410
F2395       F  0.42097778  0.24692892  0.18116798    -0.22760
F2396       F  0.45182381  0.20406590  0.18401566    -0.20090
F2397       F  0.43291982  0.21992439  0.13865012    -0.19770
F2398       F  0.54878174  0.33284163  0.12621481    -0.19820
F2399       F  0.57545864  0.28800994  0.11862248    -0.20140
F2400       F  0.57423679  0.31052515  0.16593147    -0.22810
C2401       C  0.47249944  0.17001065  0.11477840    -0.05650
C2402       C  0.50197984  0.18207262  0.10608548     0.00270
C2403       C  0.52761671  0.17799075  0.12643745    -0.08300
C2404       C  0.52311086  0.15933254  0.15295540    -0.05670
C2405       C  0.49487754  0.14358023  0.15859520     0.00260
C2406       C  0.46853767  0.15020754  0.14033232    -0.08210
C2407       C  0.43724304  0.13419435  0.14556994     0.62170
H2408       H  0.45249138  0.17459228  0.10024866     0.12870
H2409       H  0.54273069  0.15404082  0.16769599     0.12880
C2410       C  0.55999141  0.19104501  0.11969726     0.62410
F2411       F  0.41445683  0.14548412  0.12578100    -0.22760
F2412       F  0.42706700  0.13909800  0.17596167    -0.20090
F2413       F  0.44033071  0.10249246  0.13996586    -0.19770
F2414       F  0.55888944  0.22334074  0.11893044    -0.19820
F2415       F  0.57091480  0.17967185  0.09134641    -0.20140
F2416       F  0.58128805  0.18266446  0.14238063    -0.22810
C2417       C  0.36085095  0.19396425  0.93170012    -0.05650
C2418       C  0.36438500  0.20921169  0.96026976     0.00270
C2419       C  0.34565261  0.20101286  0.98643528    -0.08300
C2420       C  0.32702845  0.17477196  0.98389637    -0.05670
C2421       C  0.32717802  0.15661527  0.95676397     0.00260
C2422       C  0.34218384  0.16747660  0.92929369    -0.08210
C2423       C  0.34269130  0.14907520  0.89914121     0.62170
H2424       H  0.37611229  0.20026008  0.91246905     0.12870
H2425       H  0.31537526  0.16629728  0.00470412     0.12880
C2426       C  0.34834133  0.21528868  0.01890917     0.62410
F2427       F  0.35874083  0.16427727  0.87541558    -0.22760
F2428       F  0.31269365  0.14359748  0.88885891    -0.20090
F2429       F  0.35759955  0.12136940  0.90480733    -0.19770
F2430       F  0.31926880  0.22415297  0.02976316    -0.19820
F2431       F  0.36738292  0.24122950  0.01955094    -0.20140
F2432       F  0.36019941  0.19315232  0.03916615    -0.22810
C2433       C  0.66670342  0.16301056  0.96993146    -0.05650
C2434       C  0.67321613  0.14832725  0.99840558     0.00270
C2435       C  0.65372306  0.15474432  0.02487217    -0.08300
C2436       C  0.62527310  0.16956861  0.01986772    -0.05670
C2437       C  0.61720248  0.18152990  0.99067010     0.00260
C2438       C  0.63915619  0.17999207  0.96558941    -0.08210
C2439       C  0.63318511  0.19369114  0.93351789     0.62170
H2440       H  0.68215931  0.15914480  0.95016064     0.12870
H2441       H  0.60857868  0.17107483  0.03896005     0.12880
C2442       C  0.66092542  0.14489771  0.05822492     0.62410
F2443       F  0.66028801  0.19557815  0.91576935    -0.22760
F2444       F  0.62116853  0.22362463  0.93605215    -0.20090
F2445       F  0.61264033  0.17448338  0.91787284    -0.19770
F2446       F  0.69226493  0.14912198  0.06448834    -0.19820
F2447       F  0.65257016  0.11395578  0.06257310    -0.20140
F2448       F  0.64435858  0.16267152  0.07980022    -0.22810
C2449       C  0.71267819  0.05595338  0.72579169    -0.05650
C2450       C  0.72377044  0.02876589  0.74111543     0.00270
C2451       C  0.70449391  0.00140566  0.73900309    -0.08300
C2452       C  0.67584857  0.00304570  0.72314275    -0.05670
C2453       C  0.66377801  0.03061144  0.70997209     0.00260
C2454       C  0.68338670  0.05752536  0.71028984    -0.08210
C2455       C  0.67285082  0.08858718  0.69686694     0.62170
H2456       H  0.72689696  0.07670776  0.72668485     0.12870
H2457       H  0.66134610  0.98235346  0.72300713     0.12880
C2458       C  0.71035219  0.97084018  0.75603305     0.62410
F2459       F  0.69667626  0.11045975  0.69641688    -0.22760
F2460       F  0.64884530  0.10070030  0.71495565    -0.20090
F2461       F  0.66284976  0.08441405  0.66646363    -0.19770
F2462       F  0.69975478  0.97356975  0.78653529    -0.19820
F2463       F  0.74120688  0.96289113  0.75530839    -0.20140
F2464       F  0.69459483  0.94599213  0.74248496    -0.22810
C2465       C  0.33590090  0.00637142  0.71353636    -0.05650
C2466       C  0.32134645  0.03221068  0.72831172     0.00270
C2467       C  0.33801091  0.06119489  0.72765698    -0.08300
C2468       C  0.36940660  0.06137047  0.71661143    -0.05670
C2469       C  0.38601971  0.03377773  0.70888095     0.00260
C2470       C  0.36788648  0.00626101  0.70457961    -0.08210
C2471       C  0.38141784  0.97733484  0.68912511     0.62170
H2472       H  0.32179892  0.98634144  0.70784614     0.12870
H2473       H  0.38190752  0.08337113  0.71633079     0.12880
C2474       C  0.32237980  0.09254065  0.73567053     0.62410
F2475       F  0.35847923  0.95611294  0.68083549    -0.22760
F2476       F  0.40142005  0.96255292  0.70949479    -0.20090
F2477       F  0.39725027  0.98576789  0.66209544    -0.19770
F2478       F  0.31876507  0.09606035  0.76755229    -0.19820
F2479       F  0.29336500  0.09491065  0.72203374    -0.20140
F2480       F  0.34003383  0.11755465  0.72501214    -0.22810
C2481       C  0.53079682  0.22515267  0.72819743    -0.05650
C2482       C  0.50148953  0.23678164  0.73781820     0.00270
C2483       C  0.47554988  0.21602234  0.73643032    -0.08300
C2484       C  0.48001798  0.18511725  0.72563152    -0.05670
C2485       C  0.50931762  0.17311068  0.71641377     0.00260
C2486       C  0.53527963  0.19405725  0.71724343    -0.08210
C2487       C  0.56765511  0.18429217  0.70648617     0.62170
H2488       H  0.55043576  0.24100055  0.72931165     0.12870
H2489       H  0.45999969  0.16976397  0.72466618     0.12880
C2490       C  0.44296564  0.22556750  0.74648762     0.62410
F2491       F  0.58840833  0.20914082  0.70640747    -0.22760
F2492       F  0.56627789  0.17273274  0.67628790    -0.20090
F2493       F  0.57932357  0.16170382  0.72630473    -0.19770
F2494       F  0.43018278  0.24590615  0.72524354    -0.19820
F2495       F  0.44424250  0.23954849  0.77535177    -0.20140
F2496       F  0.42295681  0.20020700  0.74877797    -0.22810
C2497       C  0.55772832  0.84104807  0.72248418    -0.05650
C2498       C  0.52796321  0.83113121  0.73340255     0.00270
C2499       C  0.50471214  0.85492926  0.73664122    -0.08300
C2500       C  0.51104137  0.88555905  0.72599700    -0.05670
C2501       C  0.54024716  0.89514825  0.71444339     0.00260
C2502       C  0.56421743  0.87230131  0.71254871    -0.08210
C2503       C  0.59627199  0.88064933  0.69976093     0.62170
H2504       H  0.57648046  0.82427274  0.72269818     0.12870
H2505       H  0.49313605  0.90325460  0.72837549     0.12880
C2506       C  0.47358375  0.84962557  0.75276198     0.62410
F2507       F  0.61558769  0.85478643  0.69807505    -0.22760
F2508       F  0.61060352  0.90246917  0.71865929    -0.20090
F2509       F  0.59334779  0.89289175  0.67000659    -0.19770
F2510       F  0.47828351  0.83652448  0.78174930    -0.19820
F2511       F  0.45516435  0.83078878  0.73454870    -0.20140
F2512       F  0.45720749  0.87716396  0.75765936    -0.22810
C2513       C  0.48435513  0.16920483  0.87718423    -0.05650
C2514       C  0.46585638  0.19411865  0.86832354     0.00270
C2515       C  0.44796811  0.19197275  0.84090240    -0.08300
C2516       C  0.45601185  0.16841070  0.81905795    -0.05670
C2517       C  0.47942275  0.14634949  0.82608546     0.00260
C2518       C  0.49066108  0.14453466  0.85723358    -0.08210
C2519       C  0.51111106  0.11845447  0.86976672     0.62170
H2520       H  0.49524186  0.16998444  0.89966549     0.12870
H2521       H  0.44496819  0.16774101  0.79639586     0.12880
C2522       C  0.42074857  0.21379838  0.83560438     0.62410
F2523       F  0.50923431  0.11652703  0.90204274    -0.22760
F2524       F  0.54183521  0.12425555  0.86162189    -0.20090
F2525       F  0.50173096  0.08981923  0.85832067    -0.19770
F2526       F  0.43108150  0.24439113  0.83371704    -0.19820
F2527       F  0.40003685  0.21139383  0.86034109    -0.20140
F2528       F  0.40468643  0.20626093  0.80871389    -0.22810
C2529       C  0.42439674  0.06658016  0.86090854    -0.05650
C2530       C  0.41474042  0.06108328  0.83039481     0.00270
C2531       C  0.38303195  0.05984415  0.82320467    -0.08300
C2532       C  0.36107488  0.06452617  0.84662786    -0.05670
C2533       C  0.37054838  0.06639016  0.87735028     0.00260
C2534       C  0.40263387  0.06921445  0.88498247    -0.08210
C2535       C  0.41529124  0.07348561  0.91771860     0.62170
H2536       H  0.44904248  0.06707745  0.86621516     0.12870
H2537       H  0.33634091  0.06293504  0.84163116     0.12880
C2538       C  0.37256344  0.05362290  0.79093061     0.62410
F2539       F  0.43129902  0.04681972  0.92638331    -0.22760
F2540       F  0.39226852  0.07941695  0.93952746    -0.20090
F2541       F  0.43570712  0.09859958  0.91802779    -0.19770
F2542       F  0.38796141  0.02813257  0.77813775    -0.19820
F2543       F  0.37915872  0.08055696  0.77443640    -0.20140
F2544       F  0.34111129  0.04702897  0.79047931    -0.22810
C2545       C  0.68211983  0.06863011  0.85322210    -0.05650
C2546       C  0.66981646  0.05805386  0.88143910     0.00270
C2547       C  0.64165992  0.04077903  0.88181469    -0.08300
C2548       C  0.63131390  0.02756109  0.85397226    -0.05670
C2549       C  0.64381701  0.03731238  0.82526048     0.00260
C2550       C  0.66801715  0.06021641  0.82508415    -0.08210
C2551       C  0.67695713  0.07881536  0.79653594     0.62170
H2552       H  0.70292550  0.08309912  0.85313652     0.12870
H2553       H  0.61030414  0.01331252  0.85445567     0.12880
C2554       C  0.62196713  0.03639207  0.91115355     0.62410
F2555       F  0.70895706  0.08085801  0.79389810    -0.22760
F2556       F  0.66472630  0.10864444  0.79904279    -0.20090
F2557       F  0.66559361  0.06519614  0.76994850    -0.19770
F2558       F  0.63250625  0.05447715  0.93580212    -0.19820
F2559       F  0.62224470  0.00532887  0.91986088    -0.20140
F2560       F  0.59152512  0.04517776  0.90522826    -0.22810
C2561       C  0.38175247  0.77528285  0.01412879    -0.05650
C2562       C  0.39287702  0.75601869  0.98945619     0.00270
C2563       C  0.37060170  0.74570208  0.96736384    -0.08300
C2564       C  0.33876130  0.75465370  0.97108747    -0.05670
C2565       C  0.32744712  0.77382978  0.99590246     0.00260
C2566       C  0.35016272  0.78481165  0.01772548    -0.08210
C2567       C  0.34246145  0.80719373  0.04465988     0.62170
H2568       H  0.39864153  0.78400165  0.03062605     0.12870
H2569       H  0.32243652  0.74656089  0.95395710     0.12880
C2570       C  0.38006608  0.72499471  0.94005785     0.62410
F2571       F  0.36819321  0.81360442  0.06299055    -0.22760
F2572       F  0.31986490  0.79525054  0.06414187    -0.20090
F2573       F  0.33212671  0.83521022  0.03326039    -0.19770
F2574       F  0.39621407  0.69921434  0.95085620    -0.19820
F2575       F  0.39875737  0.74175765  0.91959024    -0.20140
F2576       F  0.35450086  0.71423888  0.92360642    -0.22810
C2577       C  0.68881788  0.77495663  0.95722579    -0.05650
C2578       C  0.67287936  0.76028309  0.98226753     0.00270
C2579       C  0.68994677  0.75573804  0.01042722    -0.08300
C2580       C  0.72109920  0.76700800  0.01248007    -0.05670
C2581       C  0.73647854  0.78285159  0.98786274     0.00260
C2582       C  0.71993424  0.78604705  0.95927267    -0.08210
C2583       C  0.73471355  0.80061842  0.93041695     0.62170
H2584       H  0.67642710  0.77818978  0.93555207     0.12870
H2585       H  0.73382003  0.76394785  0.03392268     0.12880
C2586       C  0.67587944  0.73883567  0.03836629     0.62410
F2587       F  0.71355769  0.80437566  0.90641395    -0.22760
F2588       F  0.75851839  0.78222463  0.91915939    -0.20090
F2589       F  0.74648724  0.82949333  0.93772450    -0.19770
F2590       F  0.66402397  0.71022915  0.02896908    -0.19820
F2591       F  0.65246775  0.75684888  0.05160046    -0.20140
F2592       F  0.69768935  0.73315030  0.06133221    -0.22810
C2593       C  0.48705493  0.74699566  0.13546574    -0.05650
C2594       C  0.51667923  0.74657029  0.12080829     0.00270
C2595       C  0.54257198  0.75486039  0.13999477    -0.08300
C2596       C  0.53742122  0.76504229  0.17147505    -0.05670
C2597       C  0.50772475  0.76587514  0.18600249     0.00260
C2598       C  0.48203314  0.75581737  0.16722621    -0.08210
C2599       C  0.44830303  0.75567860  0.17796942     0.62170
H2600       H  0.46690892  0.74100980  0.12148157     0.12870
H2601       H  0.55697753  0.77284221  0.18515036     0.12880
C2602       C  0.57576050  0.75329013  0.12761883     0.62410
F2603       F  0.43151161  0.77661574  0.16010588    -0.22760
F2604       F  0.44453953  0.76339403  0.20915657    -0.20090
F2605       F  0.43587936  0.72634582  0.17298906    -0.19770
F2606       F  0.57950878  0.77374275  0.10299183    -0.19820
F2607       F  0.58220248  0.72314151  0.11774476    -0.20140
F2608       F  0.59739194  0.76119781  0.15019027    -0.22810
C2609       C  0.51119071  0.76388668  0.82719653    -0.05650
C2610       C  0.54128507  0.76656040  0.83971691     0.00270
C2611       C  0.56513951  0.77880017  0.81971826    -0.08300
C2612       C  0.55689683  0.79093577  0.79000233    -0.05670
C2613       C  0.52696616  0.78738348  0.77700454     0.00260
C2614       C  0.50352822  0.77349500  0.79668074    -0.08210
C2615       C  0.46937556  0.76963787  0.78882853     0.62170
H2616       H  0.49262262  0.75451057  0.84177868     0.12870
H2617       H  0.57448887  0.80273080  0.77618776     0.12880
C2618       C  0.59951842  0.77727806  0.82814879     0.62410
F2619       F  0.46091918  0.73853192  0.79176473    -0.22760
F2620       F  0.46251632  0.77935935  0.75926730    -0.20090
F2621       F  0.45146663  0.78692565  0.80965993    -0.19770
F2622       F  0.60696929  0.74712042  0.83712522    -0.19820
F2623       F  0.60626300  0.79771435  0.85216638    -0.20140
F2624       F  0.61856391  0.78496936  0.80298962    -0.22810
C2625       C  0.58678565  0.87514729  0.84814056    -0.05650
C2626       C  0.57944815  0.88196971  0.87930934     0.00270
C2627       C  0.57525625  0.91369267  0.88831071    -0.08300
C2628       C  0.57145835  0.93633588  0.86505763    -0.05670
C2629       C  0.57495233  0.92884209  0.83336872     0.00260
C2630       C  0.58566527  0.89850052  0.82500951    -0.08210
C2631       C  0.59328173  0.89020545  0.79161155     0.62170
H2632       H  0.59066131  0.85108177  0.84151771     0.12870
H2633       H  0.56525378  0.96006023  0.87172220     0.12880
C2634       C  0.57410532  0.92460309  0.92198467     0.62410
F2635       F  0.60197975  0.85919053  0.78812300    -0.22760
F2636       F  0.61766264  0.90871535  0.78110466    -0.20090
F2637       F  0.56717110  0.89539020  0.77392444    -0.19770
F2638       F  0.58471728  0.90203108  0.94224025    -0.19820
F2639       F  0.54393498  0.93284082  0.93001808    -0.20140
F2640       F  0.59313160  0.95046199  0.92550696    -0.22810
C2641       C  0.53824418  0.84862921  0.12567184    -0.05650
C2642       C  0.51057355  0.84607999  0.10834771     0.00270
C2643       C  0.48692173  0.86815605  0.11144226    -0.08300
C2644       C  0.49431049  0.89580265  0.12599422    -0.05670
C2645       C  0.52148690  0.89899177  0.14413769     0.00260
C2646       C  0.54430759  0.87505675  0.14396486    -0.08210
C2647       C  0.57539465  0.87782583  0.16065924     0.62170
H2648       H  0.55607611  0.83095357  0.12236925     0.12870
H2649       H  0.47746853  0.91451190  0.12462795     0.12880
C2650       C  0.45413482  0.86255115  0.09972818     0.62410
F2651       F  0.59417791  0.85198571  0.15530668    -0.22760
F2652       F  0.57086298  0.88032075  0.19258845    -0.20090
F2653       F  0.59124476  0.90390088  0.14986851    -0.19770
F2654       F  0.44293808  0.83452716  0.11142389    -0.19820
F2655       F  0.45438854  0.86121902  0.06780217    -0.20140
F2656       F  0.43375877  0.88607423  0.10880494    -0.22810
C2657       C  0.40821380  0.92496575  0.01641450    -0.05650
C2658       C  0.37773760  0.91616348  0.00930156     0.00270
C2659       C  0.37160460  0.88549533  0.99901057    -0.08300
C2660       C  0.39482135  0.86294127  0.00165635    -0.05670
C2661       C  0.42497590  0.87159080  0.00983418     0.00260
C2662       C  0.43234152  0.90318623  0.01674973    -0.08210
C2663       C  0.46494559  0.91563071  0.02334589     0.62170
H2664       H  0.41368319  0.94943447  0.01949937     0.12870
H2665       H  0.39057822  0.83915243  0.99395319     0.12880
C2666       C  0.34188338  0.87777627  0.98225152     0.62410
F2667       F  0.46481021  0.93066120  0.05198207    -0.22760
F2668       F  0.47319538  0.93696786  0.00041110    -0.20090
F2669       F  0.48763130  0.89274293  0.02434380    -0.19770
F2670       F  0.33917685  0.89603380  0.95573764    -0.19820
F2671       F  0.34079262  0.84671935  0.97317249    -0.20140
F2672       F  0.31752135  0.88401769  0.00226512    -0.22810
C2673       C  0.67983538  0.85764388  0.94951697    -0.05650
C2674       C  0.66327190  0.85164543  0.97739747     0.00270
C2675       C  0.67510207  0.86423872  0.00603927    -0.08300
C2676       C  0.70550255  0.87481372  0.00601247    -0.05670
C2677       C  0.71574667  0.88951449  0.97920340     0.00260
C2678       C  0.70491010  0.87876507  0.94971751    -0.08210
C2679       C  0.71677572  0.89147793  0.91865552     0.62170
H2680       H  0.67103621  0.84921364  0.92734526     0.12870
H2681       H  0.71563646  0.88175587  0.02810454     0.12880
C2682       C  0.65509179  0.87508451  0.03361555     0.62410
F2683       F  0.72515410  0.86741924  0.89871830    -0.22760
F2684       F  0.74251691  0.91065528  0.92236676    -0.20090
F2685       F  0.69320802  0.90810414  0.90452282    -0.19770
F2686       F  0.64754911  0.84995186  0.05216568    -0.19820
F2687       F  0.62867968  0.88997627  0.02289894    -0.20140
F2688       F  0.67024382  0.89681187  0.05228696    -0.22810
C2689       C  0.88059771  0.79014958  0.97403304    -0.05650
C2690       C  0.89048972  0.80585617  0.00119774     0.00270
C2691       C  0.86831154  0.80990092  0.02568489    -0.08300
C2692       C  0.83799440  0.79706216  0.02257054    -0.05670
C2693       C  0.82820016  0.77969981  0.99617831     0.00260
C2694       C  0.85006142  0.77741584  0.97084695    -0.08210
C2695       C  0.84139451  0.76245019  0.93998904     0.62170
H2696       H  0.89756890  0.78694094  0.95542957     0.12870
H2697       H  0.82149672  0.80104447  0.04113823     0.12880
C2698       C  0.87627225  0.82808676  0.05514421     0.62410
F2699       F  0.86612882  0.76193772  0.91897009    -0.22760
F2700       F  0.81747758  0.77879107  0.92634463    -0.20090
F2701       F  0.83206119  0.73213428  0.94493022    -0.19770
F2702       F  0.89212778  0.85524625  0.04739759    -0.19820
F2703       F  0.89460817  0.80997282  0.07444290    -0.20140
F2704       F  0.84974815  0.83654658  0.07180056    -0.22810
C2705       C  0.18367475  0.77592500  0.02808205    -0.05650
C2706       C  0.17013877  0.78439208  0.99937752     0.00270
C2707       C  0.18998031  0.78196217  0.97212402    -0.08300
C2708       C  0.22147410  0.77176360  0.97515581    -0.05670
C2709       C  0.23522867  0.76391700  0.00387115     0.00260
C2710       C  0.21522705  0.76551071  0.03098057    -0.08210
C2711       C  0.22597928  0.75526007  0.06308841     0.62170
H2712       H  0.16887105  0.77703221  0.04865307     0.12870
H2713       H  0.23600652  0.76963985  0.95455238     0.12880
C2714       C  0.17869308  0.78990501  0.93936348     0.62410
F2715       F  0.20190213  0.75526623  0.08486909    -0.22760
F2716       F  0.24862899  0.77525931  0.07399827    -0.20090
F2717       F  0.23736144  0.72516338  0.06158850    -0.19770
F2718       F  0.16715951  0.82012782  0.93884290    -0.19820
F2719       F  0.15586048  0.76898733  0.93028756    -0.20140
F2720       F  0.20232927  0.78819971  0.91720329    -0.22810
C2721       C  0.06332750  0.80066121  0.80824228    -0.05650
C2722       C  0.03906961  0.78133541  0.79667535     0.00270
C2723       C  0.01547311  0.77213943  0.81879186    -0.08300
C2724       C  0.01692874  0.78309147  0.85015749    -0.05670
C2725       C  0.04102912  0.80235443  0.86122378     0.00260
C2726       C  0.06424384  0.81201702  0.83951913    -0.08210
C2727       C  0.08995614  0.83430551  0.84926754     0.62170
H2728       H  0.08236652  0.80639690  0.79262207     0.12870
H2729       H  0.99951261  0.77557729  0.86700693     0.12880
C2730       C  0.98839395  0.75100793  0.81018680     0.62410
F2731       F  0.10665474  0.84532705  0.82373206    -0.22760
F2732       F  0.11050947  0.81929567  0.86894208    -0.20090
F2733       F  0.07711184  0.85981828  0.86460952    -0.19770
F2734       F  0.99920303  0.72184192  0.80140117    -0.19820
F2735       F  0.97176909  0.76443700  0.78630323    -0.20140
F2736       F  0.96785125  0.74652366  0.83494956    -0.22810
C2737       C  0.97816152  0.77308991  0.14790163    -0.05650
C2738       C  0.00611865  0.78833338  0.13931583     0.00270
C2739       C  0.02967355  0.78976753  0.16263771    -0.08300
C2740       C  0.02393112  0.77631021  0.19270774    -0.05670
C2741       C  0.99567325  0.76124398  0.20143552     0.00260
C2742       C  0.97342629  0.75736819  0.17671291    -0.08210
C2743       C  0.94569922  0.73513813  0.17802231     0.62170
H2744       H  0.96000050  0.77164010  0.13061528     0.12870
H2745       H  0.04271608  0.77565334  0.20932748     0.12880
C2746       C  0.06119150  0.80458628  0.15607515     0.62410
F2747       F  0.93119291  0.73181807  0.14934860    -0.22760
F2748       F  0.92343835  0.74613432  0.19844966    -0.20090
F2749       F  0.95544804  0.70562651  0.18620393    -0.19770
F2750       F  0.05718558  0.83439685  0.14419191    -0.19820
F2751       F  0.07761739  0.78640982  0.13485163    -0.20140
F2752       F  0.07895865  0.80712758  0.18286864    -0.22810
C2753       C  0.85213852  0.25979663  0.00897723    -0.05650
C2754       C  0.86133672  0.24965231  0.97896683     0.00270
C2755       C  0.83824093  0.25027699  0.95514356    -0.08300
C2756       C  0.80792941  0.26226777  0.96201237    -0.05670
C2757       C  0.79965952  0.27558135  0.99121691     0.00260
C2758       C  0.82294180  0.27442633  0.01514932    -0.08210
C2759       C  0.81977275  0.29180542  0.04596855     0.62170
H2760       H  0.86984496  0.26006182  0.02687265     0.12870
H2761       H  0.79055839  0.26226051  0.94386154     0.12880
C2762       C  0.84545284  0.23908206  0.92218429     0.62410
F2763       F  0.84285424  0.28369193  0.06693636    -0.22760
F2764       F  0.79177611  0.28520045  0.06017003    -0.20090
F2765       F  0.82231892  0.32356825  0.04056673    -0.19770
F2766       F  0.86235935  0.21154167  0.92311899    -0.19820
F2767       F  0.86240702  0.26166737  0.90632973    -0.20140
F2768       F  0.81848679  0.23336396  0.90551351    -0.22810
C2769       C  0.01397280  0.26732085  0.78353258    -0.05650
C2770       C  0.98672624  0.27788225  0.76877997     0.00270
C2771       C  0.95800483  0.27441221  0.78574368    -0.08300
C2772       C  0.95839405  0.26258058  0.81686767    -0.05670
C2773       C  0.98596829  0.25377539  0.83229401     0.00260
C2774       C  0.01424096  0.25469897  0.81424044    -0.08210
C2775       C  0.04505588  0.24280878  0.82681683     0.62170
H2776       H  0.03559807  0.26953844  0.77061284     0.12870
H2777       H  0.93680914  0.26117476  0.83006139     0.12880
C2778       C  0.92668618  0.28339820  0.77198094     0.62410
F2779       F  0.06845946  0.24313728  0.80430003    -0.22760
F2780       F  0.04153790  0.21215963  0.83660572    -0.20090
F2781       F  0.05472650  0.26143558  0.85139036    -0.19770
F2782       F  0.90234378  0.27899116  0.79299572    -0.19820
F2783       F  0.92668843  0.31452155  0.76377841    -0.20140
F2784       F  0.92043252  0.26532253  0.74608276    -0.22810
C2785       C  0.15041322  0.27236641  0.94131949    -0.05650
C2786       C  0.14172086  0.25120710  0.96481669     0.00270
C2787       C  0.16534732  0.24079009  0.98538851    -0.08300
C2788       C  0.19633796  0.25196614  0.98154174    -0.05670
C2789       C  0.20585945  0.27257948  0.95733579     0.00260
C2790       C  0.18124713  0.28424658  0.93768268    -0.08210
C2791       C  0.18561234  0.30885657  0.91241612     0.62170
H2792       H  0.13207375  0.28058355  0.92613790     0.12870
H2793       H  0.21323439  0.24593541  0.99905592     0.12880
C2794       C  0.15818687  0.21770700  0.01143126     0.62410
F2795       F  0.15750909  0.32217293  0.90378953    -0.22760
F2796       F  0.19824471  0.29518053  0.88599637    -0.20090
F2797       F  0.20389647  0.33315594  0.92273422    -0.19770
F2798       F  0.14080469  0.19300932  0.99987945    -0.19820
F2799       F  0.14174515  0.23240959  0.03518708    -0.20140
F2800       F  0.18514094  0.20549058  0.02411246    -0.22810
C2801       C  0.00540518  0.24792556  0.16698393    -0.05650
C2802       C  0.03165389  0.26480537  0.17770347     0.00270
C2803       C  0.05348080  0.27535679  0.15459312    -0.08300
C2804       C  0.04972737  0.26568163  0.12307333    -0.05670
C2805       C  0.02359983  0.24871525  0.11226480     0.00260
C2806       C  0.00089992  0.23973995  0.13504842    -0.08210
C2807       C  0.97185590  0.22164665  0.12611197     0.62170
H2808       H  0.98762825  0.24188761  0.18400385     0.12870
H2809       H  0.06696273  0.27290966  0.10602474     0.12880
C2810       C  0.07994070  0.29814698  0.16188375     0.62410
F2811       F  0.95582737  0.21069971  0.15213825    -0.22760
F2812       F  0.97992286  0.19604382  0.10792765    -0.20090
F2813       F  0.95199792  0.24092681  0.10967382    -0.19770
F2814       F  0.09807823  0.30466142  0.13577009    -0.19820
F2815       F  0.09967858  0.28642290  0.18406694    -0.20140
F2816       F  0.06784458  0.32607643  0.17253781    -0.22810
C2817       C  0.85653542  0.53389849  0.26438889    -0.05650
C2818       C  0.87482673  0.50714797  0.25865387     0.00270
C2819       C  0.85953891  0.48077726  0.24512631    -0.08300
C2820       C  0.82835056  0.48374577  0.23451828    -0.05670
C2821       C  0.81031454  0.51095832  0.23902954     0.00260
C2822       C  0.82507123  0.53658839  0.25467504    -0.08210
C2823       C  0.80976415  0.56793522  0.26084117     0.62170
H2824       H  0.86765224  0.55395457  0.27519444     0.12870
H2825       H  0.81763645  0.46418925  0.22284673     0.12880
C2826       C  0.87536422  0.44910804  0.24248366     0.62410
F2827       F  0.82967756  0.59200708  0.25228403    -0.22760
F2828       F  0.80314018  0.57073812  0.29241640    -0.20090
F2829       F  0.78291344  0.57179142  0.24414125    -0.19770
F2830       F  0.88487655  0.43966642  0.27180264    -0.19820
F2831       F  0.90075454  0.45072970  0.22261738    -0.20140
F2832       F  0.85552038  0.42631053  0.23097766    -0.22810
C2833       C  0.16457238  0.54025796  0.25946934    -0.05650
C2834       C  0.15324456  0.50955435  0.25728173     0.00270
C2835       C  0.17536642  0.48546465  0.25105937    -0.08300
C2836       C  0.20518117  0.49404910  0.23917819    -0.05670
C2837       C  0.21578675  0.52530797  0.23814746     0.00260
C2838       C  0.19544061  0.54852161  0.25148803    -0.08210
C2839       C  0.20291705  0.58267067  0.25700754     0.62170
H2840       H  0.14867936  0.55874084  0.26650762     0.12870
H2841       H  0.21994725  0.47601567  0.22938894     0.12880
C2842       C  0.16762083  0.45084889  0.25503332     0.62410
F2843       F  0.18331447  0.60121382  0.23937669    -0.22760
F2844       F  0.23293080  0.59027331  0.24964488    -0.20090
F2845       F  0.19801682  0.58966747  0.28825389    -0.19770
F2846       F  0.14886664  0.44003279  0.23118690    -0.19820
F2847       F  0.15255768  0.44629270  0.28339386    -0.20140
F2848       F  0.19433827  0.43271503  0.25483602    -0.22810
C2849       C  0.96988196  0.66191401  0.25064312    -0.05650
C2850       C  0.99921571  0.64738062  0.25034017     0.00270
C2851       C  0.02574609  0.66576014  0.24139362    -0.08300
C2852       C  0.02160666  0.69803412  0.23528475    -0.05670
C2853       C  0.99278191  0.71308817  0.23926754     0.00260
C2854       C  0.96627992  0.69441988  0.24755908    -0.08210
C2855       C  0.93367807  0.70647993  0.25437830     0.62170
H2856       H  0.94936826  0.64807959  0.25625988     0.12870
H2857       H  0.04159278  0.71254947  0.22967796     0.12880
C2858       C  0.05876450  0.65284256  0.24060119     0.62410
F2859       F  0.92379105  0.69714692  0.28377455    -0.22760
F2860       F  0.91308574  0.69432951  0.23275636    -0.20090
F2861       F  0.93217604  0.73830038  0.25361790    -0.19770
F2862       F  0.06069267  0.62757805  0.22062912    -0.19820
F2863       F  0.06725664  0.64392199  0.27039187    -0.20140
F2864       F  0.08027800  0.67480779  0.23030601    -0.22810
C2865       C  0.05427053  0.35306639  0.24848237    -0.05650
C2866       C  0.02720797  0.36988156  0.24148158     0.00270
C2867       C  0.00222075  0.35352897  0.22693676    -0.08300
C2868       C  0.00662549  0.32197314  0.21760060    -0.05670
C2869       C  0.03412337  0.30516129  0.22383418     0.00260
C2870       C  0.05801038  0.32110035  0.24095176    -0.08210
C2871       C  0.08829576  0.30691786  0.25188870     0.62170
H2872       H  0.07312755  0.36526692  0.26012082     0.12870
H2873       H  0.98781511  0.30946914  0.20640189     0.12880
C2874       C  0.97076353  0.36885993  0.22150960     0.62410
F2875       F  0.11313098  0.32353035  0.23935302    -0.22760
F2876       F  0.09167671  0.27631853  0.24340423    -0.20090
F2877       F  0.08960493  0.30866874  0.28417595    -0.19770
F2878       F  0.97432853  0.39608838  0.20454092    -0.19820
F2879       F  0.95698832  0.37575664  0.25001299    -0.20140
F2880       F  0.95064942  0.34953101  0.20521103    -0.22810
C2881       C  0.02025002  0.36782811  0.14474634    -0.05650
C2882       C  0.04608747  0.38769962  0.14638193     0.00270
C2883       C  0.07249604  0.38238999  0.12699740    -0.08300
C2884       C  0.07030697  0.35923788  0.10377681    -0.05670
C2885       C  0.04257872  0.34237492  0.09981234     0.00260
C2886       C  0.01774990  0.34527680  0.12162353    -0.08210
C2887       C  0.98680674  0.32781928  0.11992807     0.62170
H2888       H  0.00042078  0.37176221  0.15999361     0.12870
H2889       H  0.08895225  0.35625364  0.08677489     0.12880
C2890       C  0.10166288  0.40233252  0.12926019     0.62410
F2891       F  0.97988838  0.31493227  0.14874785    -0.22760
F2892       F  0.98671411  0.30380005  0.09835530    -0.20090
F2893       F  0.96345479  0.34871348  0.11229562    -0.19770
F2894       F  0.11418945  0.39933208  0.15881710    -0.19820
F2895       F  0.09441117  0.43337741  0.12376587    -0.20140
F2896       F  0.12420834  0.39332974  0.10769279    -0.22810
C2897       C  0.99954680  0.65614712  0.15575122    -0.05650
C2898       C  0.97817366  0.63227490  0.14916334     0.00270
C2899       C  0.95915820  0.63440860  0.12230698    -0.08300
C2900       C  0.96150440  0.66134020  0.10370308    -0.05670
C2901       C  0.98461188  0.68391547  0.10897409     0.00260
C2902       C  0.00431367  0.68114763  0.13527574    -0.08210
C2903       C  0.03329917  0.70090697  0.14048089     0.62170
H2904       H  0.01528876  0.65329918  0.17529432     0.12870
H2905       H  0.94827289  0.66231572  0.08229908     0.12880
C2906       C  0.93889130  0.60804266  0.10991232     0.62410
F2907       F  0.03487148  0.70990055  0.17134222    -0.22760
F2908       F  0.03402225  0.72771343  0.12270984    -0.20090
F2909       F  0.05941713  0.68321848  0.13338660    -0.19770
F2910       F  0.90816543  0.61783263  0.10938289    -0.19820
F2911       F  0.94070326  0.58093861  0.12732825    -0.20140
F2912       F  0.94818127  0.60080574  0.07967641    -0.22810
C2913       C  0.27045602  0.53382954  0.83564390    -0.05650
C2914       C  0.28992259  0.50876773  0.84395488     0.00270
C2915       C  0.29968568  0.48776055  0.82022593    -0.08300
C2916       C  0.29014963  0.49310069  0.78898329    -0.05670
C2917       C  0.27027119  0.51811363  0.78060053     0.00260
C2918       C  0.25924033  0.53817519  0.80497954    -0.08210
C2919       C  0.23414630  0.56282315  0.79994519     0.62170
H2920       H  0.26230631  0.54912245  0.85414626     0.12870
H2921       H  0.29716922  0.47679906  0.77090858     0.12880
C2922       C  0.32031342  0.46007615  0.82782719     0.62410
F2923       F  0.22874882  0.58059026  0.82654737    -0.22760
F2924       F  0.20658334  0.54822646  0.79232833    -0.20090
F2925       F  0.24223285  0.58323065  0.77639338    -0.19770
F2926       F  0.30403649  0.43897020  0.84621990    -0.19820
F2927       F  0.34636746  0.47028020  0.84378905    -0.20140
F2928       F  0.33029078  0.44463311  0.80106484    -0.22810
C2929       C  0.25250045  0.54845569  0.13485889    -0.05650
C2930       C  0.27128378  0.52408805  0.12306843     0.00270
C2931       C  0.28075221  0.50070571  0.14473311    -0.08300
C2932       C  0.27205064  0.50352171  0.17689012    -0.05670
C2933       C  0.25362619  0.52840083  0.18876201     0.00260
C2934       C  0.24189651  0.55013674  0.16627265    -0.08210
C2935       C  0.21779398  0.57505033  0.17398340     0.62170
H2936       H  0.24482145  0.56608674  0.11858518     0.12870
H2937       H  0.27946068  0.48580882  0.19327128     0.12880
C2938       C  0.30010920  0.47288327  0.13436859     0.62410
F2939       F  0.20729637  0.59045010  0.14759983    -0.22760
F2940       F  0.23052842  0.59741661  0.19313733    -0.20090
F2941       F  0.19199342  0.56148518  0.18783005    -0.19770
F2942       F  0.32599041  0.48298969  0.11768964    -0.19820
F2943       F  0.28216511  0.45350404  0.11586068    -0.20140
F2944       F  0.31051663  0.45550037  0.15951995    -0.22810
C2945       C  0.27958155  0.70734164  0.97036820    -0.05650
C2946       C  0.28176158  0.72161428  0.00019095     0.00270
C2947       C  0.29566375  0.70293232  0.02420825    -0.08300
C2948       C  0.30177415  0.67075318  0.01888082    -0.05670
C2949       C  0.29686312  0.65591830  0.98999032     0.00260
C2950       C  0.28857752  0.67565289  0.96444070    -0.08210
C2951       C  0.28749943  0.66310634  0.93133876     0.62170
H2952       H  0.27069012  0.72143764  0.95142144     0.12870
H2953       H  0.30977106  0.65656244  0.03824022     0.12880
C2954       C  0.30489226  0.71468927  0.05608308     0.62410
F2955       F  0.28146593  0.68649447  0.90984737    -0.22760
F2956       F  0.26436754  0.64073939  0.92889000    -0.20090
F2957       F  0.31604868  0.65002734  0.92367032    -0.19770
F2958       F  0.29086732  0.69665250  0.07910746    -0.19820
F2959       F  0.29635659  0.74501869  0.06077222    -0.20140
F2960       F  0.33692243  0.71256513  0.05910321    -0.22810
C2961       C  0.28230245  0.36161606  0.94348770    -0.05650
C2962       C  0.27933526  0.37546197  0.97300727     0.00270
C2963       C  0.26492194  0.35737206  0.99710196    -0.08300
C2964       C  0.25189353  0.32758686  0.98960168    -0.05670
C2965       C  0.25229810  0.31495132  0.95903072     0.00260
C2966       C  0.26827691  0.33300917  0.93560329    -0.08210
C2967       C  0.26981013  0.32584090  0.90111544     0.62170
H2968       H  0.29401714  0.37470244  0.92508204     0.12870
H2969       H  0.24201561  0.31331448  0.00801290     0.12880
C2970       C  0.26303111  0.36910393  0.03055242     0.62410
F2971       F  0.25667231  0.35025521  0.88453730    -0.22760
F2972       F  0.25386949  0.29940932  0.89363933    -0.20090
F2973       F  0.30063682  0.32278983  0.89179869    -0.19770
F2974       F  0.24454300  0.39546191  0.03219496    -0.19820
F2975       F  0.29261916  0.37621917  0.04102756    -0.20140
F2976       F  0.25035312  0.34693953  0.05054322    -0.22810
C2977       C  0.18326836  0.51837360  0.12205975    -0.05650
C2978       C  0.17455474  0.54165694  0.10084605     0.00270
C2979       C  0.14381426  0.55326975  0.10105882    -0.08300
C2980       C  0.12304140  0.54153033  0.12336090    -0.05670
C2981       C  0.13156886  0.51799007  0.14448082     0.00260
C2982       C  0.16177154  0.50522576  0.14281788    -0.08210
C2983       C  0.17079601  0.47702000  0.16146693     0.62170
H2984       H  0.20594572  0.50750658  0.11930338     0.12870
H2985       H  0.09942076  0.55000370  0.12341490     0.12880
C2986       C  0.13108707  0.57562303  0.07671188     0.62410
F2987       F  0.20253200  0.47106650  0.16021646    -0.22760
F2988       F  0.15499213  0.45108013  0.15061490    -0.20090
F2989       F  0.16254820  0.48234859  0.19176456    -0.19770
F2990       F  0.10994756  0.55987209  0.05809974    -0.19820
F2991       F  0.15415914  0.58811157  0.05778063    -0.20140
F2992       F  0.11593157  0.60018913  0.09144136    -0.22810
C2993       C  0.17970603  0.37178848  0.98169593    -0.05650
C2994       C  0.17204477  0.39696048  0.96196426     0.00270
C2995       C  0.14053203  0.40225786  0.95444833    -0.08300
C2996       C  0.11859148  0.38069433  0.96449539    -0.05670
C2997       C  0.12613740  0.35442462  0.98237717     0.00260
C2998       C  0.15673508  0.35153373  0.99396818    -0.08210
C2999       C  0.16580940  0.33115923  0.02142228     0.62170
H3000       H  0.20308826  0.37052706  0.99081506     0.12870
H3001       H  0.09478476  0.38449992  0.95820272     0.12880
C3002       C  0.12802573  0.43131609  0.93822971     0.62410
F3003       F  0.18071316  0.34941103  0.04353390    -0.22760
F3004       F  0.18604057  0.30834881  0.01150778    -0.20090
F3005       F  0.14089121  0.31699174  0.03614407    -0.19770
F3006       F  0.11074745  0.42243322  0.91249621    -0.19820
F3007       F  0.15109783  0.45148989  0.92814754    -0.20140
F3008       F  0.10875136  0.44745396  0.95875763    -0.22810
C3009       C  0.14156932  0.62725064  0.98739314    -0.05650
C3010       C  0.17096924  0.63348956  0.00036595     0.00270
C3011       C  0.18281912  0.66410139  0.00020031    -0.08300
C3012       C  0.16515899  0.68797004  0.98708446    -0.05670
C3013       C  0.13708166  0.68138165  0.97256843     0.00260
C3014       C  0.12637305  0.65022723  0.97048496    -0.08210
C3015       C  0.09864934  0.64075051  0.95130654     0.62170
H3016       H  0.13280162  0.60338615  0.98640550     0.12870
H3017       H  0.17238114  0.71212121  0.98919775     0.12880
C3018       C  0.21542831  0.67080236  0.00980128     0.62410
F3019       F  0.10757407  0.61755490  0.93059958    -0.22760
F3020       F  0.08704978  0.66540788  0.93421935    -0.20090
F3021       F  0.07561831  0.62921049  0.97081647    -0.19770
F3022       F  0.23475968  0.65460398  0.98998627    -0.19820
F3023       F  0.22034672  0.66207838  0.04044030    -0.20140
F3024       F  0.22174501  0.70189082  0.00682480    -0.22810
C3025       C  0.21502030  0.54894558  0.72258587    -0.05650
C3026       C  0.22693420  0.52224787  0.73743697     0.00270
C3027       C  0.20624711  0.49670548  0.74270331    -0.08300
C3028       C  0.17443499  0.49962201  0.73425421    -0.05670
C3029       C  0.16230915  0.52709320  0.72074563     0.00260
C3030       C  0.18353409  0.55183809  0.71372855    -0.08210
C3031       C  0.17353040  0.58166429  0.69725332     0.62170
H3032       H  0.23058911  0.56837125  0.71900559     0.12870
H3033       H  0.15837159  0.48082789  0.73976451     0.12880
C3034       C  0.21722309  0.46672828  0.75798502     0.62410
F3035       F  0.19889520  0.59800836  0.68539759    -0.22760
F3036       F  0.15800591  0.60108880  0.71807476    -0.20090
F3037       F  0.15430868  0.57454024  0.67237879    -0.19770
F3038       F  0.22400426  0.47247971  0.78894029    -0.19820
F3039       F  0.24355026  0.45551299  0.74290214    -0.20140
F3040       F  0.19468748  0.44352554  0.75697919    -0.22810
C3041       C  0.01542186  0.34230358  0.74755544    -0.05650
C3042       C  0.99098463  0.32693535  0.73199478     0.00270
C3043       C  0.96990456  0.34634913  0.71481939    -0.08300
C3044       C  0.97559149  0.37897590  0.71221865    -0.05670
C3045       C  0.00085817  0.39378275  0.72659082     0.00260
C3046       C  0.02080905  0.37494510  0.74533899    -0.08210
C3047       C  0.04648971  0.38910796  0.76502378     0.62170
H3048       H  0.03067374  0.32818422  0.76177974     0.12870
H3049       H  0.95944109  0.39337681  0.69917261     0.12880
C3050       C  0.94007409  0.33546381  0.69988458     0.62410
F3051       F  0.06660422  0.40640197  0.74650516    -0.22760
F3052       F  0.03322218  0.40786207  0.78777738    -0.20090
F3053       F  0.06403174  0.36656021  0.78005262    -0.19770
F3054       F  0.93474375  0.30403965  0.70366112    -0.19820
F3055       F  0.94130447  0.34238444  0.66840960    -0.20140
F3056       F  0.91513940  0.35146163  0.71299307    -0.22810
C3057       C  0.01541818  0.69144014  0.72669686    -0.05650
C3058       C  0.04222778  0.67334513  0.73254038     0.00270
C3059       C  0.06788559  0.68871289  0.74732756    -0.08300
C3060       C  0.06324202  0.71892297  0.76043751    -0.05670
C3061       C  0.03762475  0.73780870  0.75252268     0.00260
C3062       C  0.01339934  0.72368863  0.73440569    -0.08210
C3063       C  0.98484856  0.74076226  0.72231455     0.62170
H3064       H  0.99599481  0.68057444  0.71474114     0.12870
H3065       H  0.08163130  0.72958968  0.77405296     0.12880
C3066       C  0.10118300  0.67583525  0.74594973     0.62410
F3067       F  0.98324713  0.73713909  0.69020837    -0.22760
F3068       F  0.98492698  0.77242199  0.72864932    -0.20090
F3069       F  0.95831441  0.72771715  0.73553306    -0.19770
F3070       F  0.10890019  0.66757853  0.71558881    -0.19820
F3071       F  0.10460395  0.64987072  0.76441184    -0.20140
F3072       F  0.12280188  0.69776942  0.75578724    -0.22810
C3073       C  0.83197072  0.51523056  0.72503913    -0.05650
C3074       C  0.82076508  0.54050122  0.74340848     0.00270
C3075       C  0.84217096  0.56566867  0.74884174    -0.08300
C3076       C  0.87347802  0.56338561  0.73778318    -0.05670
C3077       C  0.88479694  0.53715067  0.72143410     0.00260
C3078       C  0.86324895  0.51299506  0.71420658    -0.08210
C3079       C  0.87314797  0.48468463  0.69507214     0.62170
H3080       H  0.81600142  0.49659305  0.71933239     0.12870
H3081       H  0.89013334  0.58150345  0.74363033     0.12880
C3082       C  0.83271812  0.59509688  0.76630463     0.62410
F3083       F  0.84765538  0.46833272  0.68385316    -0.22760
F3084       F  0.89044214  0.46456076  0.71332318    -0.20090
F3085       F  0.89091566  0.49412731  0.66962384    -0.19770
F3086       F  0.82693767  0.58811356  0.79732225    -0.19820
F3087       F  0.80655631  0.60789568  0.75284380    -0.20140
F3088       F  0.85585977  0.61772755  0.76542235    -0.22810
C3089       C  0.14887265  0.50144113  0.81658915    -0.05650
C3090       C  0.14336437  0.53392137  0.81624858     0.00270
C3091       C  0.15814893  0.55347418  0.83824226    -0.08300
C3092       C  0.17725048  0.53948106  0.86048902    -0.05670
C3093       C  0.18108284  0.50700591  0.86251399     0.00260
C3094       C  0.16745969  0.48742074  0.83975980    -0.08210
C3095       C  0.17112910  0.45215777  0.84086988     0.62170
H3096       H  0.13789749  0.48711524  0.79892304     0.12870
H3097       H  0.18866819  0.55389338  0.87746728     0.12880
C3098       C  0.15298859  0.58869871  0.83918937     0.62410
F3099       F  0.15676846  0.43766799  0.81582426    -0.22760
F3100       F  0.15785160  0.44073958  0.86802552    -0.20090
F3101       F  0.20236416  0.44424424  0.84018981    -0.19770
F3102       F  0.12157809  0.59488008  0.84309989    -0.19820
F3103       F  0.16361040  0.60221660  0.81174130    -0.20140
F3104       F  0.16868606  0.60281670  0.86361067    -0.22810
C3105       C  0.96856799  0.40080085  0.82727893    -0.05650
C3106       C  0.97427114  0.42938469  0.84207134     0.00270
C3107       C  0.96937402  0.43303638  0.87450773    -0.08300
C3108       C  0.96247202  0.40618365  0.89188985    -0.05670
C3109       C  0.96173337  0.37667816  0.87740583     0.00260
C3110       C  0.96326318  0.37390401  0.84472314    -0.08210
C3111       C  0.96272716  0.34241347  0.82874734     0.62170
H3112       H  0.97135117  0.39919897  0.80209392     0.12870
H3113       H  0.96115169  0.40747840  0.91720197     0.12880
C3114       C  0.97208332  0.46464319  0.89050771     0.62410
F3115       F  0.98776768  0.32466497  0.83850516    -0.22760
F3116       F  0.93513357  0.32724376  0.83609003    -0.20090
F3117       F  0.96483888  0.34548909  0.79668820    -0.19770
F3118       F  0.95333537  0.48611249  0.87549847    -0.19820
F3119       F  0.00265441  0.47491962  0.88950998    -0.20140
F3120       F  0.96274322  0.46323686  0.92155949    -0.22810
C3121       C  0.08399382  0.67221190  0.83435218    -0.05650
C3122       C  0.06496398  0.64619122  0.84056786     0.00270
C3123       C  0.04772423  0.64534744  0.86884096    -0.08300
C3124       C  0.04235624  0.67298774  0.88451789    -0.05670
C3125       C  0.05951741  0.69976786  0.87767681     0.00260
C3126       C  0.08309973  0.69862437  0.85421909    -0.08210
C3127       C  0.10670688  0.72461287  0.85015093     0.62170
H3128       H  0.09909306  0.67203991  0.81416596     0.12870
H3129       H  0.02633819  0.67281161  0.90417432     0.12880
C3130       C  0.03454639  0.61596655  0.88339818     0.62410
F3131       F  0.12538291  0.72009855  0.82397298    -0.22760
F3132       F  0.12576374  0.72589570  0.87606233    -0.20090
F3133       F  0.09154934  0.75272373  0.84699781    -0.19770
F3134       F  0.04768866  0.58957734  0.87031891    -0.19820
F3135       F  0.00256133  0.61564629  0.87994666    -0.20140
F3136       F  0.04110975  0.61537144  0.91500792    -0.22810
C3137       C  0.75625815  0.37497159  0.96698371    -0.05650
C3138       C  0.75601965  0.39183538  0.99553513     0.00270
C3139       C  0.75928094  0.37396622  0.02381725    -0.08300
C3140       C  0.76294402  0.34114640  0.02191376    -0.05670
C3141       C  0.76218675  0.32427950  0.99390260     0.00260
C3142       C  0.75825708  0.34160713  0.96569541    -0.08210
C3143       C  0.75603297  0.32533714  0.93422195     0.62170
H3144       H  0.75417543  0.38806028  0.94545187     0.12870
H3145       H  0.76410078  0.32783486  0.04314899     0.12880
C3146       C  0.75750558  0.38825243  0.05659198     0.62410
F3147       F  0.74455399  0.34520863  0.91150980    -0.22760
F3148       F  0.73619825  0.29986436  0.93616526    -0.20090
F3149       F  0.78521863  0.31546309  0.92465116    -0.19770
F3150       F  0.72951951  0.40393204  0.06051013    -0.19820
F3151       F  0.78222206  0.40845061  0.06121117    -0.20140
F3152       F  0.75894309  0.36590260  0.07996989    -0.22810
C3153       C  0.77188080  0.72311403  0.96434408    -0.05650
C3154       C  0.78339450  0.73469442  0.99294337     0.00270
C3155       C  0.77883983  0.71482419  0.01964234    -0.08300
C3156       C  0.76480402  0.68479437  0.01602361    -0.05670
C3157       C  0.75481622  0.67295275  0.98697858     0.00260
C3158       C  0.75777048  0.69328611  0.96070388    -0.08210
C3159       C  0.74593007  0.68418477  0.92851504     0.62170
H3160       H  0.77444926  0.73774336  0.94413926     0.12870
H3161       H  0.76263930  0.66983399  0.03638390     0.12880
C3162       C  0.78724473  0.72353373  0.05288032     0.62410
F3163       F  0.74265440  0.71004146  0.90932602    -0.22760
F3164       F  0.71696556  0.67006137  0.93108048    -0.20090
F3165       F  0.76675742  0.66390460  0.91421845    -0.19770
F3166       F  0.76036739  0.72683756  0.07059148    -0.19820
F3167       F  0.80412662  0.75068695  0.05486227    -0.20140
F3168       F  0.80473766  0.69989765  0.06591960    -0.22810
C3169       C  0.75032990  0.48912801  0.14445517    -0.05650
C3170       C  0.75060344  0.51857606  0.12944925     0.00270
C3171       C  0.75906343  0.54502516  0.14795654    -0.08300
C3172       C  0.76915084  0.54042128  0.17920325    -0.05670
C3173       C  0.76852892  0.51108368  0.19430468     0.00260
C3174       C  0.75852747  0.48487831  0.17624336    -0.08210
C3175       C  0.75625588  0.45164492  0.18852178     0.62170
H3176       H  0.74382709  0.46864570  0.13098739     0.12870
H3177       H  0.77691249  0.56036592  0.19233368     0.12880
C3178       C  0.75737644  0.57827382  0.13538490     0.62410
F3179       F  0.72576293  0.44137058  0.18616112    -0.22760
F3180       F  0.76524501  0.44869035  0.21913133    -0.20090
F3181       F  0.77513502  0.43226075  0.17073843    -0.19770
F3182       F  0.72727615  0.58446288  0.12583886    -0.19820
F3183       F  0.77775365  0.58209567  0.11046599    -0.20140
F3184       F  0.76501835  0.60031810  0.15784754    -0.22810
C3185       C  0.76489561  0.56951155  0.80130763    -0.05650
C3186       C  0.77683473  0.54129059  0.78869967     0.00270
C3187       C  0.77353245  0.51381369  0.80761801    -0.08300
C3188       C  0.76171421  0.51654081  0.83842562    -0.05670
C3189       C  0.75256711  0.54526743  0.85166188     0.00260
C3190       C  0.75237936  0.57192197  0.83197998    -0.08210
C3191       C  0.73809406  0.60302483  0.84162097     0.62170
H3192       H  0.76462689  0.59006695  0.78670486     0.12870
H3193       H  0.76119169  0.49578025  0.85298077     0.12880
C3194       C  0.78195343  0.48076419  0.79748499     0.62410
F3195       F  0.76137468  0.62528242  0.84420213    -0.22760
F3196       F  0.72164675  0.60150551  0.86950509    -0.20090
F3197       F  0.71721539  0.61250886  0.81912889    -0.19770
F3198       F  0.79723329  0.47957253  0.76921103    -0.19820
F3199       F  0.75523271  0.46281556  0.79563234    -0.20140
F3200       F  0.80103008  0.46720731  0.81952760    -0.22810
C3201       C  0.92144045  0.55382647  0.86767250    -0.05650
C3202       C  0.91078262  0.53679801  0.84174613     0.00270
C3203       C  0.87925504  0.52798033  0.84002342    -0.08300
C3204       C  0.85890942  0.53866403  0.86361766    -0.05670
C3205       C  0.86953637  0.55770535  0.88816933     0.00260
C3206       C  0.90144707  0.56508033  0.89066723    -0.08210
C3207       C  0.91600423  0.58491188  0.91635867     0.62170
H3208       H  0.94573967  0.56024705  0.86902625     0.12870
H3209       H  0.83458807  0.53158787  0.86321796     0.12880
C3210       C  0.86595641  0.50706601  0.81496520     0.62410
F3211       F  0.93555570  0.56632974  0.93395722    -0.22760
F3212       F  0.89450018  0.59873872  0.93619135    -0.20090
F3213       F  0.93353905  0.60861391  0.90288288    -0.19770
F3214       F  0.88533427  0.50241966  0.78954354    -0.19820
F3215       F  0.83906801  0.52041037  0.80410317    -0.20140
F3216       F  0.85918871  0.47830695  0.82806324    -0.22810
C3217       C  0.83704163  0.53749758  0.14179991    -0.05650
C3218       C  0.83329023  0.50956791  0.12493645     0.00270
C3219       C  0.84680791  0.48161902  0.13601192    -0.08300
C3220       C  0.87017697  0.48464204  0.15821639    -0.05670
C3221       C  0.88050627  0.51441345  0.16757453     0.00260
C3222       C  0.86103731  0.54071719  0.16325756    -0.08210
C3223       C  0.86696336  0.57263965  0.17781022     0.62170
H3224       H  0.82450654  0.55811411  0.13449926     0.12870
H3225       H  0.88350356  0.46419987  0.16475493     0.12880
C3226       C  0.84064253  0.44968435  0.12161502     0.62410
F3227       F  0.84229060  0.59293760  0.17303213    -0.22760
F3228       F  0.89337713  0.58598072  0.16500451    -0.20090
F3229       F  0.87083213  0.56972180  0.20961827    -0.19770
F3230       F  0.85340728  0.44831399  0.09187998    -0.19820
F3231       F  0.80893040  0.44426082  0.12005738    -0.20140
F3232       F  0.85363697  0.42584162  0.13911173    -0.22810
C3233       C  0.85155130  0.38779500  0.99755190    -0.05650
C3234       C  0.86415763  0.41446256  0.01158986     0.00270
C3235       C  0.89679384  0.41877120  0.01168989    -0.08300
C3236       C  0.91543703  0.39808092  0.99466863    -0.05670
C3237       C  0.90303107  0.37199641  0.97891739     0.00260
C3238       C  0.87037637  0.36690883  0.98031349    -0.08210
C3239       C  0.85518290  0.34051864  0.96283041     0.62170
H3240       H  0.82638232  0.38558771  0.99698086     0.12870
H3241       H  0.94008505  0.40322945  0.99304952     0.12880
C3242       C  0.91273126  0.44650636  0.02707952     0.62410
F3243       F  0.82339699  0.34025462  0.96711104    -0.22760
F3244       F  0.86661363  0.31285040  0.97395621    -0.20090
F3245       F  0.86134041  0.34306770  0.93112734    -0.19770
F3246       F  0.89235623  0.46453981  0.04461165    -0.19820
F3247       F  0.92629696  0.46517807  0.00431804    -0.20140
F3248       F  0.93577338  0.43581696  0.04683737    -0.22810
C3249       C  0.85437074  0.67488537  0.01273751    -0.05650
C3250       C  0.85097608  0.66174622  0.98263595     0.00270
C3251       C  0.86622985  0.67584849  0.95672387    -0.08300
C3252       C  0.88665811  0.70048024  0.96298696    -0.05670
C3253       C  0.89493549  0.70889958  0.99369697     0.00260
C3254       C  0.87703404  0.69759360  0.01908593    -0.08210
C3255       C  0.88312255  0.70742109  0.05266080     0.62170
H3256       H  0.84125405  0.66476814  0.03195586     0.12870
H3257       H  0.89888419  0.71111814  0.94340126     0.12880
C3258       C  0.86458750  0.66573446  0.92251036     0.62410
F3259       F  0.86362495  0.69241425  0.07373396    -0.22760
F3260       F  0.87866314  0.73932899  0.05572705    -0.20090
F3261       F  0.91324725  0.69998587  0.06078111    -0.19770
F3262       F  0.85205940  0.68969138  0.90494550    -0.19820
F3263       F  0.84716078  0.63930676  0.91714455    -0.20140
F3264       F  0.89444738  0.65998929  0.91147100    -0.22810
C3265       C  0.25998148  0.54891562  0.63869502    -0.05650
C3266       C  0.24974619  0.52014725  0.62630183     0.00270
C3267       C  0.25050910  0.49351778  0.64625743    -0.08300
C3268       C  0.26195716  0.49671603  0.67714373    -0.05670
C3269       C  0.27397244  0.52509656  0.68893443     0.00260
C3270       C  0.27357711  0.55170120  0.66870667    -0.08210
C3271       C  0.28845464  0.58294455  0.67703348     0.62170
H3272       H  0.25968206  0.56916507  0.62350692     0.12870
H3273       H  0.26270216  0.47643505  0.69217151     0.12880
C3274       C  0.24000329  0.46146574  0.63515644     0.62410
F3275       F  0.29571517  0.59999847  0.65041485    -0.22760
F3276       F  0.31601369  0.57865468  0.69270534    -0.20090
F3277       F  0.26836459  0.60065203  0.69514125    -0.19770
F3278       F  0.26307181  0.44812497  0.61671735    -0.19820
F3279       F  0.21281585  0.46399423  0.61812845    -0.20140
F3280       F  0.23414284  0.44155078  0.66004911    -0.22810
C3281       C  0.25340180  0.50818670  0.33115683    -0.05650
C3282       C  0.25097497  0.53791513  0.34536148     0.00270
C3283       C  0.25768068  0.56452562  0.32612432    -0.08300
C3284       C  0.26809047  0.55986429  0.29492335    -0.05670
C3285       C  0.26837373  0.53054199  0.28010480     0.00260
C3286       C  0.26109743  0.50391565  0.29904450    -0.08210
C3287       C  0.26201690  0.47022135  0.28787590     0.62170
H3288       H  0.24916542  0.48760666  0.34536908     0.12870
H3289       H  0.27524108  0.57979039  0.28125190     0.12880
C3290       C  0.25256822  0.59812569  0.33717812     0.62410
F3291       F  0.28614898  0.45485900  0.30265595    -0.22760
F3292       F  0.26617691  0.46715114  0.25603976    -0.20090
F3293       F  0.23433044  0.45562245  0.29595869    -0.19770
F3294       F  0.27460363  0.60659634  0.35899792    -0.19820
F3295       F  0.22303311  0.60104502  0.35012949    -0.20140
F3296       F  0.25474005  0.61931661  0.31277624    -0.22810
C3297       C  0.27182292  0.67761189  0.44736298    -0.05650
C3298       C  0.25348482  0.67004365  0.47380412     0.00270
C3299       C  0.24654879  0.69484130  0.49487473    -0.08300
C3300       C  0.25843996  0.72553862  0.48864728    -0.05670
C3301       C  0.27790566  0.73271360  0.46249672     0.00260
C3302       C  0.28604457  0.70710873  0.44249348    -0.08210
C3303       C  0.30947534  0.70965129  0.41570615     0.62170
H3304       H  0.27562427  0.65960148  0.43007214     0.12870
H3305       H  0.25271202  0.74429256  0.50464082     0.12880
C3306       C  0.22569424  0.68929262  0.52306836     0.62410
F3307       F  0.29831742  0.72910950  0.39289868    -0.22760
F3308       F  0.33767616  0.72047203  0.42664369    -0.20090
F3309       F  0.31524261  0.68106958  0.40147977    -0.19770
F3310       F  0.24067431  0.67006713  0.54411823    -0.19820
F3311       F  0.19820463  0.67525315  0.51369304    -0.20140
F3312       F  0.21819494  0.71696867  0.53823580    -0.22810
C3313       C  0.24822064  0.34134473  0.51820307    -0.05650
C3314       C  0.25465976  0.32757949  0.48867267     0.00270
C3315       C  0.24578672  0.34621473  0.46210393    -0.08300
C3316       C  0.23620861  0.37772136  0.46629810    -0.05670
C3317       C  0.23544894  0.39238187  0.49563628     0.00260
C3318       C  0.23889885  0.37292626  0.52226662    -0.08210
C3319       C  0.23371279  0.38516777  0.55528071     0.62170
H3320       H  0.24982633  0.32742207  0.53880450     0.12870
H3321       H  0.23189305  0.39186528  0.44573863     0.12880
C3322       C  0.24641009  0.33582522  0.42838950     0.62410
F3323       F  0.22578145  0.36121746  0.57563029    -0.22760
F3324       F  0.20962066  0.40670082  0.55593527    -0.20090
F3325       F  0.26076063  0.39908590  0.56594434    -0.19770
F3326       F  0.21654201  0.33711774  0.41643464    -0.19820
F3327       F  0.25718141  0.30623015  0.42480506    -0.20140
F3328       F  0.26555718  0.35546749  0.41109255    -0.22810
C3329       C  0.55102788  0.69017777  0.74557752    -0.05650
C3330       C  0.52290945  0.67319409  0.74997059     0.00270
C3331       C  0.49461938  0.68985869  0.74452088    -0.08300
C3332       C  0.49589374  0.72170610  0.73500615    -0.05670
C3333       C  0.52380573  0.73817120  0.72927026     0.00260
C3334       C  0.55213692  0.72169524  0.73475896    -0.08210
C3335       C  0.58382018  0.73570720  0.72679380     0.62170
H3336       H  0.57277519  0.67794806  0.74907413     0.12870
H3337       H  0.47440718  0.73402209  0.73177093     0.12880
C3338       C  0.46278439  0.67459088  0.74834456     0.62410
F3339       F  0.60788699  0.71908980  0.74032526    -0.22760
F3340       F  0.58630682  0.76599142  0.73713943    -0.20090
F3341       F  0.58811210  0.73540682  0.69480798    -0.19770
F3342       F  0.45982322  0.66252909  0.77821785    -0.19820
F3343       F  0.45929610  0.65103465  0.72641200    -0.20140
F3344       F  0.43860768  0.69558537  0.74407764    -0.22810
C3345       C  0.67968729  0.57028387  0.75628192    -0.05650
C3346       C  0.66381188  0.54252199  0.76485951     0.00270
C3347       C  0.68219291  0.51477177  0.76689629    -0.08300
C3348       C  0.71383064  0.51538313  0.75684496    -0.05670
C3349       C  0.72831614  0.54194363  0.74377351     0.00260
C3350       C  0.71108709  0.57067825  0.74553967    -0.08210
C3351       C  0.72330174  0.60245411  0.73508655     0.62170
H3352       H  0.66682919  0.59209934  0.75585354     0.12870
H3353       H  0.72737301  0.49427975  0.75797610     0.12880
C3354       C  0.66898751  0.48425017  0.77936042     0.62410
F3355       F  0.70439167  0.61430392  0.71185269    -0.22760
F3356       F  0.75328653  0.60133963  0.72370986    -0.20090
F3357       F  0.72258931  0.62317848  0.75987851    -0.19770
F3358       F  0.64831821  0.47172372  0.75809205    -0.19820
F3359       F  0.65413467  0.48956224  0.80769452    -0.20140
F3360       F  0.69197904  0.46216106  0.78436066    -0.22810
C3361       C  0.36809240  0.54124574  0.75419824    -0.05650
C3362       C  0.38443939  0.51455075  0.74378580     0.00270
C3363       C  0.36643716  0.49032281  0.72933095    -0.08300
C3364       C  0.33443325  0.49571855  0.72266383    -0.05670
C3365       C  0.31877858  0.52349966  0.73094614     0.00260
C3366       C  0.33603002  0.54617849  0.74835323    -0.08210
C3367       C  0.32265988  0.57651290  0.76097305     0.62170
H3368       H  0.38076948  0.55941113  0.76645346     0.12870
H3369       H  0.32086068  0.47758407  0.71146857     0.12880
C3370       C  0.37994643  0.45820374  0.72197098     0.62410
F3371       F  0.34135035  0.60133567  0.75178049    -0.22760
F3372       F  0.32193974  0.57537287  0.79330684    -0.20090
F3373       F  0.29314739  0.58234799  0.75032884    -0.19770
F3374       F  0.39519504  0.44668788  0.74792237    -0.19820
F3375       F  0.40049066  0.45994117  0.69701547    -0.20140
F3376       F  0.35696169  0.43684764  0.71414255    -0.22810
C3377       C  0.52804392  0.33900976  0.75585593    -0.05650
C3378       C  0.50689663  0.32890756  0.73245768     0.00270
C3379       C  0.48739091  0.35222736  0.71920250    -0.08300
C3380       C  0.49026404  0.38372674  0.72913682    -0.05670
C3381       C  0.51154617  0.39394504  0.75208287     0.00260
C3382       C  0.53038822  0.37069406  0.76619432    -0.08210
C3383       C  0.55224528  0.37887810  0.79265256     0.62170
H3384       H  0.54323790  0.32176180  0.76607666     0.12870
H3385       H  0.47588245  0.40115288  0.71803984     0.12880
C3386       C  0.46383407  0.34490743  0.69389404     0.62410
F3387       F  0.56440217  0.35239331  0.80662373    -0.22760
F3388       F  0.53628791  0.39565160  0.81539788    -0.20090
F3389       F  0.57681121  0.39658260  0.78129538    -0.19770
F3390       F  0.44328750  0.32194887  0.70288172    -0.19820
F3391       F  0.47942216  0.33500229  0.66754663    -0.20140
F3392       F  0.44607478  0.37080359  0.68640839    -0.22810
C3393       C  0.40245482  0.48698928  0.57718630    -0.05650
C3394       C  0.37270610  0.49535922  0.58838415     0.00270
C3395       C  0.36843237  0.50280322  0.62036839    -0.08300
C3396       C  0.39433359  0.50300153  0.63990023    -0.05670
C3397       C  0.42423982  0.49759883  0.62814547     0.00260
C3398       C  0.42862294  0.48805259  0.59682450    -0.08210
C3399       C  0.46073900  0.47965442  0.58444402     0.62170
H3400       H  0.40531008  0.48156258  0.55255567     0.12870
H3401       H  0.39150846  0.50997395  0.66418448     0.12880
C3402       C  0.33773071  0.51236521  0.63497763     0.62410
F3403       F  0.45969393  0.46917050  0.55380507    -0.22760
F3404       F  0.47329235  0.45613508  0.60261506    -0.20090
F3405       F  0.47999871  0.50559504  0.58559833    -0.19770
F3406       F  0.32725298  0.48821591  0.65367348    -0.19820
F3407       F  0.31515543  0.51912592  0.61336967    -0.20140
F3408       F  0.34208606  0.53881375  0.65307151    -0.22810
C3409       C  0.78509184  0.70182341  0.51900787    -0.05650
C3410       C  0.77746977  0.71688641  0.49082957     0.00270
C3411       C  0.78376928  0.69942140  0.46253318    -0.08300
C3412       C  0.79321711  0.66767586  0.46436001    -0.05670
C3413       C  0.79857985  0.65222869  0.49272129     0.00260
C3414       C  0.79596632  0.67054419  0.52073288    -0.08210
C3415       C  0.80475602  0.65796921  0.55282522     0.62170
H3416       H  0.78318548  0.71500372  0.54027833     0.12870
H3417       H  0.79668573  0.65471079  0.44278385     0.12880
C3418       C  0.78443222  0.71253533  0.42952502     0.62410
F3419       F  0.80562135  0.68131519  0.57532516    -0.22760
F3420       F  0.83412729  0.64463815  0.55149694    -0.20090
F3421       F  0.78312841  0.63605258  0.56269816    -0.19770
F3422       F  0.81439395  0.71048426  0.41747684    -0.19820
F3423       F  0.77564950  0.74306960  0.42816314    -0.20140
F3424       F  0.76519440  0.69541849  0.41019190    -0.22810
C3425       C  0.76945121  0.50729288  0.64648927    -0.05650
C3426       C  0.78458937  0.53209118  0.63096587     0.00270
C3427       C  0.79470335  0.55787435  0.64947819    -0.08300
C3428       C  0.78753167  0.55860896  0.68193277    -0.05670
C3429       C  0.77022905  0.53489683  0.69722320     0.00260
C3430       C  0.76230026  0.50791640  0.67900508    -0.08210
C3431       C  0.74650096  0.47938955  0.69309640     0.62170
H3432       H  0.76185102  0.48762447  0.63247849     0.12870
H3433       H  0.79536352  0.57827716  0.69568093     0.12880
C3434       C  0.81311413  0.58481838  0.63538249     0.62410
F3435       F  0.74690240  0.45411902  0.67276398    -0.22760
F3436       F  0.71571986  0.48602747  0.69988791    -0.20090
F3437       F  0.76175803  0.47024257  0.71982939    -0.19770
F3438       F  0.79338509  0.60384662  0.61852290    -0.19820
F3439       F  0.83647158  0.57346108  0.61595653    -0.20140
F3440       F  0.82709155  0.60299728  0.65818249    -0.22810
C3441       C  0.75090641  0.36238524  0.45945864    -0.05650
C3442       C  0.76702734  0.37536152  0.48512791     0.00270
C3443       C  0.77650945  0.35397819  0.50873558    -0.08300
C3444       C  0.77033406  0.32132494  0.50501819    -0.05670
C3445       C  0.75286030  0.30852520  0.47997272     0.00260
C3446       C  0.74311948  0.33031675  0.45653643    -0.08210
C3447       C  0.72472257  0.32264704  0.42726653     0.62170
H3448       H  0.74306022  0.37784051  0.44106335     0.12870
H3449       H  0.77912258  0.30558617  0.52238472     0.12880
C3450       C  0.79241174  0.36522095  0.53826700     0.62410
F3451       F  0.69719726  0.33950684  0.42741689    -0.22760
F3452       F  0.71740461  0.29166329  0.42419739    -0.20090
F3453       F  0.74191596  0.33136224  0.40115524    -0.19770
F3454       F  0.77237922  0.38460651  0.55479959    -0.19820
F3455       F  0.81942734  0.38126783  0.53060652    -0.20140
F3456       F  0.80042167  0.34071714  0.55776736    -0.22810
C3457       C  0.77976772  0.48005106  0.29732769    -0.05650
C3458       C  0.76023647  0.50435715  0.28631711     0.00270
C3459       C  0.74924602  0.52657937  0.30864872    -0.08300
C3460       C  0.75841557  0.52397929  0.34030673    -0.05670
C3461       C  0.77707983  0.49939433  0.35129931     0.00260
C3462       C  0.78789497  0.47692640  0.32941439    -0.08210
C3463       C  0.80813598  0.45002880  0.34003350     0.62170
H3464       H  0.78788333  0.46277719  0.28065615     0.12870
H3465       H  0.74955016  0.54052786  0.35739012     0.12880
C3466       C  0.72603786  0.55184266  0.30015948     0.62410
F3467       F  0.81788306  0.43157849  0.31516557    -0.22760
F3468       F  0.79155237  0.43139212  0.36070880    -0.20090
F3469       F  0.83429378  0.46165399  0.35483111    -0.19770
F3470       F  0.69774025  0.53802009  0.29404086    -0.19820
F3471       F  0.73529768  0.56827666  0.27413699    -0.20140
F3472       F  0.72226371  0.57330283  0.32415991    -0.22810
C3473       C  0.69444740  0.58740537  0.62785593    -0.05650
C3474       C  0.68150044  0.59115749  0.59846164     0.00270
C3475       C  0.64895383  0.59501155  0.59521972    -0.08300
C3476       C  0.63027093  0.59105305  0.62172545    -0.05670
C3477       C  0.64325867  0.58055971  0.64978439     0.00260
C3478       C  0.67551386  0.57603855  0.65179934    -0.08210
C3479       C  0.68977551  0.55099444  0.67148387     0.62170
H3480       H  0.71946711  0.58357411  0.62933075     0.12870
H3481       H  0.60509422  0.59239865  0.61952653     0.12880
C3482       C  0.63298196  0.59823541  0.56394608     0.62410
F3483       F  0.69490926  0.52484437  0.65303858    -0.22760
F3484       F  0.67167289  0.54234900  0.69677427    -0.20090
F3485       F  0.71780612  0.56202070  0.68167276    -0.19770
F3486       F  0.61879388  0.57021330  0.55635030    -0.19820
F3487       F  0.65371609  0.60631060  0.54041141    -0.20140
F3488       F  0.61023979  0.62104619  0.56574807    -0.22810
C3489       C  0.71620785  0.76389873  0.46386212    -0.05650
C3490       C  0.73095953  0.75816597  0.49263333     0.00270
C3491       C  0.71251551  0.76320369  0.52022121    -0.08300
C3492       C  0.68112368  0.77336750  0.51748811    -0.05670
C3493       C  0.66672782  0.77999174  0.48856741     0.00260
C3494       C  0.68524502  0.77533137  0.46108917    -0.08210
C3495       C  0.67292192  0.78220995  0.42856785     0.62170
H3496       H  0.72902597  0.75952961  0.44289680     0.12870
H3497       H  0.66746076  0.77578874  0.53876726     0.12880
C3498       C  0.72384636  0.75722563  0.55331390     0.62410
F3499       F  0.69559853  0.77878351  0.40559426    -0.22760
F3500       F  0.66243626  0.81278405  0.42733781    -0.20090
F3501       F  0.64895048  0.76180275  0.42147631    -0.19770
F3502       F  0.71280008  0.78024077  0.57336928    -0.19820
F3503       F  0.75566249  0.75706722  0.55571074    -0.20140
F3504       F  0.71298321  0.72866918  0.56354152    -0.22810
C3505       C  0.50096349  0.79024887  0.63235865    -0.05650
C3506       C  0.53004447  0.79802033  0.61901050     0.00270
C3507       C  0.55632905  0.79827149  0.63931792    -0.08300
C3508       C  0.55236509  0.78968955  0.67114906    -0.05670
C3509       C  0.52346690  0.78107713  0.68448383     0.00260
C3510       C  0.49718072  0.78105819  0.66407363    -0.08210
C3511       C  0.46537740  0.76924528  0.67416166     0.62170
H3512       H  0.48103523  0.78956972  0.61702450     0.12870
H3513       H  0.57253920  0.78906334  0.68585008     0.12880
C3514       C  0.58879102  0.80753872  0.62804929     0.62410
F3515       F  0.44267086  0.77487382  0.65200779    -0.22760
F3516       F  0.45596020  0.78355287  0.70127574    -0.20090
F3517       F  0.46677649  0.73747886  0.67868710    -0.19770
F3518       F  0.58742877  0.83562730  0.61204829    -0.19820
F3519       F  0.60097658  0.78446767  0.60882244    -0.20140
F3520       F  0.60926984  0.81146902  0.65258836    -0.22810
C3521       C  0.37406036  0.79310842  0.43796763    -0.05650
C3522       C  0.38801824  0.79119040  0.46733533     0.00270
C3523       C  0.36870651  0.78261546  0.49321253    -0.08300
C3524       C  0.33703974  0.77433851  0.48794633    -0.05670
C3525       C  0.32297024  0.77558556  0.45828961     0.00260
C3526       C  0.34226479  0.78647915  0.43285302    -0.08210
C3527       C  0.33265274  0.79055116  0.39918826     0.62170
H3528       H  0.38864883  0.79960392  0.41813982     0.12870
H3529       H  0.32265657  0.76711585  0.50744346     0.12880
C3530       C  0.38111042  0.78201450  0.52636178     0.62410
F3531       F  0.34055381  0.82034614  0.38935776    -0.22760
F3532       F  0.30149834  0.78665657  0.39469527    -0.20090
F3533       F  0.34852026  0.76921548  0.38060744    -0.19770
F3534       F  0.39133647  0.81159216  0.53450262    -0.19820
F3535       F  0.40545865  0.76108563  0.52857802    -0.20140
F3536       F  0.35847838  0.77313980  0.54787322    -0.22810
C3537       C  0.49376597  0.74838898  0.29615547    -0.05650
C3538       C  0.51894198  0.75703689  0.27673237     0.00270
C3539       C  0.54328989  0.77545014  0.29037298    -0.08300
C3540       C  0.54206959  0.78257384  0.32273553    -0.05670
C3541       C  0.51555276  0.77653253  0.34136790     0.00260
C3542       C  0.48974438  0.76096082  0.32666182    -0.08210
C3543       C  0.45663059  0.76106863  0.34033793     0.62170
H3544       H  0.47495289  0.73532773  0.28555819     0.12870
H3545       H  0.56150896  0.79499488  0.33306562     0.12880
C3546       C  0.57039287  0.78978406  0.27239265     0.62410
F3547       F  0.43493912  0.75014050  0.31910400    -0.22760
F3548       F  0.44802229  0.79124572  0.34819613    -0.20090
F3549       F  0.45429227  0.74259525  0.36655146    -0.19770
F3550       F  0.57085798  0.82177195  0.27755316    -0.19820
F3551       F  0.56873477  0.78513361  0.24064685    -0.20140
F3552       F  0.59807279  0.77721458  0.28299803    -0.22810
C3553       C  0.36947915  0.65092770  0.43619164    -0.05650
C3554       C  0.34870147  0.65454018  0.46131276     0.00270
C3555       C  0.35469523  0.67625166  0.48549028    -0.08300
C3556       C  0.38244575  0.69292727  0.48416481    -0.05670
C3557       C  0.40492449  0.68625667  0.46128365     0.00260
C3558       C  0.39880582  0.66481380  0.43693715    -0.08210
C3559       C  0.42298498  0.65229539  0.41405898     0.62170
H3560       H  0.36492972  0.63317670  0.41856641     0.12870
H3561       H  0.38772381  0.70942594  0.50268526     0.12880
C3562       C  0.33452178  0.68028795  0.51460224     0.62410
F3563       F  0.42618842  0.62058487  0.41880555    -0.22760
F3564       F  0.45207840  0.66535030  0.41755387    -0.20090
F3565       F  0.41308308  0.65725050  0.38378551    -0.19770
F3566       F  0.30722665  0.66320655  0.51375516    -0.19820
F3567       F  0.32664022  0.71136258  0.51809399    -0.20140
F3568       F  0.35124441  0.67102157  0.54052423    -0.22810
C3569       C  0.56998544  0.70267331  0.63195714    -0.05650
C3570       C  0.54034113  0.70746927  0.61893677     0.00270
C3571       C  0.51330246  0.69632265  0.63519804    -0.08300
C3572       C  0.51772645  0.67863503  0.66204160    -0.05670
C3573       C  0.54712240  0.66662138  0.66890218     0.00260
C3574       C  0.57402538  0.68102078  0.65624370    -0.08210
C3575       C  0.60655766  0.67170833  0.66605165     0.62170
H3576       H  0.59030054  0.71246203  0.62036543     0.12870
H3577       H  0.49768793  0.66870768  0.67406223     0.12880
C3578       C  0.48026261  0.69756316  0.62230890     0.62410
F3579       F  0.62916737  0.69082156  0.65283517    -0.22760
F3580       F  0.61223755  0.64152221  0.65673280    -0.20090
F3581       F  0.60929466  0.67340027  0.69813808    -0.19770
F3582       F  0.47745515  0.67596957  0.59835988    -0.19820
F3583       F  0.47353603  0.72728039  0.61162598    -0.20140
F3584       F  0.45793206  0.68973464  0.64453692    -0.22810
C3585       C  0.67175747  0.69843863  0.48497669    -0.05650
C3586       C  0.65573243  0.70035074  0.51347582     0.00270
C3587       C  0.66749627  0.68555280  0.54030528    -0.08300
C3588       C  0.69332215  0.66560707  0.53634964    -0.05670
C3589       C  0.70517091  0.65896421  0.50620378     0.00260
C3590       C  0.69553151  0.67705861  0.48034994    -0.08210
C3591       C  0.70512611  0.67124082  0.44662060     0.62170
H3592       H  0.66277657  0.71087447  0.46483589     0.12870
H3593       H  0.70141403  0.65192838  0.55598924     0.12880
C3594       C  0.65182800  0.68935214  0.57208090     0.62410
F3595       F  0.68142102  0.65542214  0.43152717    -0.22760
F3596       F  0.73217810  0.65398781  0.44396247    -0.20090
F3597       F  0.70970492  0.69955529  0.43167389    -0.19770
F3598       F  0.62097033  0.68018682  0.57059653    -0.19820
F3599       F  0.65292366  0.72040046  0.58117782    -0.20140
F3600       F  0.66633982  0.67160836  0.59477722    -0.22810
C3601       C  0.70524671  0.52762914  0.22161699    -0.05650
C3602       C  0.71742465  0.50414403  0.24135616     0.00270
C3603       C  0.69625700  0.48003441  0.25092491    -0.08300
C3604       C  0.66542727  0.47957654  0.23882257    -0.05670
C3605       C  0.65330895  0.50284570  0.21870108     0.00260
C3606       C  0.67415834  0.52746909  0.21001531    -0.08210
C3607       C  0.66396668  0.55412223  0.18907162     0.62170
H3608       H  0.72018551  0.54726889  0.21625013     0.12870
H3609       H  0.64978696  0.46129452  0.24662367     0.12880
C3610       C  0.70474349  0.45549999  0.27525442     0.62410
F3611       F  0.68870930  0.57317147  0.18047156    -0.22760
F3612       F  0.64239330  0.57249662  0.20475003    -0.20090
F3613       F  0.65104509  0.54226917  0.16195876    -0.19770
F3614       F  0.68203386  0.43260093  0.27820491    -0.19820
F3615       F  0.73213571  0.44059628  0.26724677    -0.20140
F3616       F  0.70785150  0.46955005  0.30418992    -0.22810
C3617       C  0.35326687  0.54666071  0.20111679    -0.05650
C3618       C  0.37119661  0.52058335  0.20978797     0.00270
C3619       C  0.35614122  0.49706316  0.22800276    -0.08300
C3620       C  0.32564827  0.50242264  0.23978377    -0.05670
C3621       C  0.30783009  0.52904130  0.23237945     0.00260
C3622       C  0.32252983  0.55184463  0.21252817    -0.08210
C3623       C  0.30925272  0.58376463  0.20537257     0.62170
H3624       H  0.36439432  0.56472760  0.18714794     0.12870
H3625       H  0.31588974  0.48560002  0.25563661     0.12880
C3626       C  0.37203754  0.46635550  0.23565860     0.62410
F3627       F  0.33086163  0.60666869  0.21276359    -0.22760
F3628       F  0.28287415  0.59003446  0.22237668    -0.20090
F3629       F  0.30267770  0.58580481  0.17385037    -0.19770
F3630       F  0.39783439  0.47196912  0.25390759    -0.19820
F3631       F  0.38089799  0.45154987  0.20820913    -0.20140
F3632       F  0.35259798  0.44607016  0.25188144    -0.22810
C3633       C  0.48543811  0.36018156  0.21004454    -0.05650
C3634       C  0.51424269  0.37314090  0.21923694     0.00270
C3635       C  0.53574228  0.35217900  0.23386596    -0.08300
C3636       C  0.52628255  0.32097106  0.24112741    -0.05670
C3637       C  0.49652941  0.30885876  0.23398565     0.00260
C3638       C  0.47618754  0.32903601  0.21696684    -0.08210
C3639       C  0.44394475  0.32003899  0.20607368     0.62170
H3640       H  0.46894626  0.37502330  0.19801524     0.12870
H3641       H  0.54230035  0.30551172  0.25295134     0.12880
C3642       C  0.56882646  0.36195677  0.24178928     0.62410
F3643       F  0.42239197  0.34159943  0.21705188    -0.22760
F3644       F  0.43495090  0.29117595  0.21659636    -0.20090
F3645       F  0.44337395  0.31997282  0.17372954    -0.19770
F3646       F  0.56847828  0.38306670  0.26629754    -0.19820
F3647       F  0.58297891  0.37531503  0.21585154    -0.20140
F3648       F  0.58691640  0.33671190  0.25070470    -0.22810
C3649       C  0.53785762  0.66640247  0.21514826    -0.05650
C3650       C  0.50866315  0.65313950  0.20775612     0.00270
C3651       C  0.48157596  0.67216722  0.21293815    -0.08300
C3652       C  0.48531584  0.70297685  0.22484264    -0.05670
C3653       C  0.51449985  0.71654886  0.23118401     0.00260
C3654       C  0.54132732  0.69721294  0.22719162    -0.08210
C3655       C  0.57367736  0.70823356  0.23612967     0.62170
H3656       H  0.55836157  0.65196056  0.21211436     0.12870
H3657       H  0.46495086  0.71678214  0.23011654     0.12880
C3658       C  0.44849661  0.66090438  0.20581873     0.62410
F3659       F  0.59581727  0.68487222  0.23271812    -0.22760
F3660       F  0.57377144  0.71744184  0.26708458    -0.20090
F3661       F  0.58266550  0.73275073  0.21724152    -0.19770
F3662       F  0.44024617  0.63574444  0.22427335    -0.19820
F3663       F  0.44657550  0.65255554  0.17461712    -0.20140
F3664       F  0.42629869  0.68365149  0.21170606    -0.22810
C3665       C  0.41211563  0.56752556  0.34940223    -0.05650
C3666       C  0.40018422  0.57075920  0.31934456     0.00270
C3667       C  0.36963478  0.58193442  0.31527915    -0.08300
C3668       C  0.34963815  0.58251401  0.34149500    -0.05670
C3669       C  0.36015985  0.57201502  0.37066258     0.00260
C3670       C  0.39257165  0.56691396  0.37533967    -0.08210
C3671       C  0.40649687  0.55429043  0.40530601     0.62170
H3672       H  0.43645541  0.56118836  0.35206596     0.12870
H3673       H  0.32515079  0.58745082  0.33851159     0.12880
C3674       C  0.35780201  0.59001828  0.28331797     0.62410
F3675       F  0.43792723  0.56148306  0.40742398    -0.22760
F3676       F  0.40379057  0.52209496  0.40521996    -0.20090
F3677       F  0.39183779  0.56671864  0.43131015    -0.19770
F3678       F  0.35879675  0.56341376  0.26528429    -0.19820
F3679       F  0.37640791  0.61282423  0.26985054    -0.20140
F3680       F  0.32757468  0.60112115  0.28432209    -0.22810
C3681       C  0.52442918  0.63321672  0.32709579    -0.05650
C3682       C  0.49677924  0.63687585  0.31011771     0.00270
C3683       C  0.47331972  0.65673489  0.32250732    -0.08300
C3684       C  0.47945063  0.67306240  0.35049116    -0.05670
C3685       C  0.50745496  0.66941535  0.36727044     0.00260
C3686       C  0.52950232  0.64715514  0.35617700    -0.08210
C3687       C  0.55808596  0.63699061  0.37449402     0.62170
H3688       H  0.54229873  0.61821762  0.31779970     0.12870
H3689       H  0.46178622  0.68838293  0.35981395     0.12880
C3690       C  0.44239942  0.66151236  0.30635239     0.62410
F3691       F  0.57371009  0.61241201  0.36039300    -0.22760
F3692       F  0.54917184  0.62684496  0.40396257    -0.20090
F3693       F  0.57889105  0.66150597  0.37665949    -0.19770
F3694       F  0.42610680  0.63370114  0.30569423    -0.19820
F3695       F  0.44758208  0.67191703  0.27628956    -0.20140
F3696       F  0.42389403  0.68341887  0.32148965    -0.22810
C3697       C  0.62706658  0.47281552  0.34470424    -0.05650
C3698       C  0.62412776  0.50073024  0.32768858     0.00270
C3699       C  0.64379739  0.52657832  0.33440937    -0.08300
C3700       C  0.66648094  0.52306625  0.35694680    -0.05670
C3701       C  0.66714179  0.49686486  0.37626998     0.00260
C3702       C  0.64740390  0.47095737  0.37030615    -0.08210
C3703       C  0.64593770  0.44293933  0.39203642     0.62170
H3704       H  0.61140074  0.45360029  0.33956751     0.12870
H3705       H  0.68211888  0.54237237  0.36182724     0.12880
C3706       C  0.63891928  0.55903293  0.32098826     0.62410
F3707       F  0.62289753  0.42196094  0.38339564    -0.22760
F3708       F  0.63935161  0.45293416  0.42213941    -0.20090
F3709       F  0.67415292  0.42732319  0.39162856    -0.19770
F3710       F  0.61254415  0.57155464  0.33467646    -0.19820
F3711       F  0.63605391  0.55740238  0.28883274    -0.20140
F3712       F  0.66300811  0.57943218  0.32759211    -0.22810
C3713       C  0.48259889  0.26883866  0.67503765    -0.05650
C3714       C  0.50842503  0.28279031  0.68977054     0.00270
C3715       C  0.53698544  0.28322978  0.67256039    -0.08300
C3716       C  0.53771841  0.27183341  0.64130009    -0.05670
C3717       C  0.51159418  0.25822067  0.62628449     0.00260
C3718       C  0.48347344  0.25626892  0.64428295    -0.08210
C3719       C  0.45388722  0.24166195  0.63149882     0.62170
H3720       H  0.46097357  0.26874114  0.68775366     0.12870
H3721       H  0.55950080  0.27379802  0.62843908     0.12880
C3722       C  0.56773374  0.29464178  0.68574088     0.62410
F3723       F  0.43119197  0.23798618  0.65443526    -0.22760
F3724       F  0.46033333  0.21229839  0.61940088    -0.20090
F3725       F  0.44170003  0.26070178  0.60852617    -0.19770
F3726       F  0.59073149  0.27271481  0.67965810    -0.19820
F3727       F  0.56688333  0.29929751  0.71759938    -0.20140
F3728       F  0.57597675  0.32242541  0.67144680    -0.22810
C3729       C  0.46775401  0.26356257  0.33157254    -0.05650
C3730       C  0.49552065  0.25125735  0.34450776     0.00270
C3731       C  0.52038272  0.24487749  0.32313645    -0.08300
C3732       C  0.51701391  0.25269210  0.29091747    -0.05670
C3733       C  0.48992922  0.26686817  0.27861425     0.00260
C3734       C  0.46476623  0.27296282  0.29990490    -0.08210
C3735       C  0.43526142  0.29113595  0.29102121     0.62170
H3736       H  0.44819012  0.26763977  0.34711007     0.12870
H3737       H  0.53620664  0.24846679  0.27487876     0.12880
C3738       C  0.55042917  0.22982710  0.33385412     0.62410
F3739       F  0.41709852  0.29860220  0.31690827    -0.22760
F3740       F  0.41638122  0.27416136  0.27170183    -0.20090
F3741       F  0.44293460  0.31885678  0.27648678    -0.19770
F3742       F  0.54373097  0.20257654  0.35001166    -0.19820
F3743       F  0.56647409  0.25033567  0.35293392    -0.20140
F3744       F  0.56975247  0.22206676  0.30892249    -0.22810
C3745       C  0.35375150  0.27003146  0.50807347    -0.05650
C3746       C  0.36801491  0.26869683  0.47840069     0.00270
C3747       C  0.34857196  0.27458156  0.45212422    -0.08300
C3748       C  0.31698361  0.28323106  0.45705955    -0.05670
C3749       C  0.30260250  0.28619612  0.48677923     0.00260
C3750       C  0.32211471  0.27874977  0.51297197    -0.08210
C3751       C  0.31223120  0.27894330  0.54693995     0.62170
H3752       H  0.36791082  0.26493230  0.52833673     0.12870
H3753       H  0.30319922  0.28745166  0.43685423     0.12880
C3754       C  0.36028744  0.27141428  0.41851717     0.62410
F3755       F  0.31127201  0.24851598  0.55792913    -0.22760
F3756       F  0.28390352  0.29236228  0.55167636    -0.20090
F3757       F  0.33351162  0.29583064  0.56440540    -0.19770
F3758       F  0.37511630  0.24292207  0.41451913    -0.19820
F3759       F  0.38063985  0.29556743  0.41148825    -0.20140
F3760       F  0.33625318  0.27262410  0.39709346    -0.22810
C3761       C  0.66573848  0.25096632  0.51818240    -0.05650
C3762       C  0.64829094  0.24017133  0.49225132     0.00270
C3763       C  0.66520602  0.23559310  0.46369409    -0.08300
C3764       C  0.69690975  0.24496966  0.46172578    -0.05670
C3765       C  0.71251960  0.26092743  0.48594548     0.00260
C3766       C  0.69729208  0.26121615  0.51588374    -0.08210
C3767       C  0.71325505  0.27010041  0.54656279     0.62170
H3768       H  0.65421218  0.25271121  0.54076355     0.12870
H3769       H  0.70984034  0.24043664  0.44042791     0.12880
C3770       C  0.65024609  0.22192131  0.43463813     0.62410
F3771       F  0.70345921  0.29896280  0.55713472    -0.22760
F3772       F  0.74519938  0.27064941  0.54406686    -0.20090
F3773       F  0.70578011  0.24857292  0.56950774    -0.19770
F3774       F  0.62900921  0.24301565  0.42277563    -0.19820
F3775       F  0.63556156  0.19400156  0.44192337    -0.20140
F3776       F  0.67191094  0.21573587  0.41123821    -0.22810
C3777       C  0.50382384  0.40520794  0.38689806    -0.05650
C3778       C  0.49620924  0.37593261  0.37401088     0.00270
C3779       C  0.49961095  0.37088381  0.34187848    -0.08300
C3780       C  0.51041729  0.39516841  0.32308948    -0.05670
C3781       C  0.51994877  0.42356620  0.33627864     0.00260
C3782       C  0.51710068  0.42886562  0.36877191    -0.08210
C3783       C  0.52973150  0.45759902  0.38558921     0.62170
H3784       H  0.50373425  0.40796565  0.41202968     0.12870
H3785       H  0.51215356  0.39188499  0.29798627     0.12880
C3786       C  0.49333722  0.33932802  0.32828264     0.62410
F3787       F  0.50537157  0.47767963  0.39249187    -0.22760
F3788       F  0.55203713  0.47338289  0.36820056    -0.20090
F3789       F  0.54377288  0.44885302  0.41329557    -0.19770
F3790       F  0.46368316  0.33063930  0.33734819    -0.19820
F3791       F  0.51486927  0.31805909  0.33934314    -0.20140
F3792       F  0.49518523  0.33976034  0.29613823    -0.22810
C3793       C  0.37270697  0.36624074  0.46342387    -0.05650
C3794       C  0.40302147  0.37754421  0.46046224     0.00270
C3795       C  0.40994069  0.40844158  0.47023926    -0.08300
C3796       C  0.38852877  0.42418264  0.48893632    -0.05670
C3797       C  0.35792569  0.41330821  0.49170713     0.00260
C3798       C  0.34956885  0.38489653  0.47720110    -0.08210
C3799       C  0.31618417  0.37514463  0.47584455     0.62170
H3800       H  0.36761940  0.34250313  0.45610181     0.12870
H3801       H  0.39426265  0.44757662  0.49711609     0.12880
C3802       C  0.43921859  0.42574803  0.46059744     0.62410
F3803       F  0.31292336  0.34744923  0.45978213    -0.22760
F3804       F  0.29902455  0.39756840  0.46038371    -0.20090
F3805       F  0.30534148  0.37170170  0.50610082    -0.19770
F3806       F  0.45928819  0.40681024  0.44391421    -0.19820
F3807       F  0.45437325  0.43719737  0.48661828    -0.20140
F3808       F  0.43115495  0.45075300  0.44183769    -0.22810
C3809       C  0.55847794  0.36671654  0.62074304    -0.05650
C3810       C  0.53002148  0.35767640  0.60807430     0.00270
C3811       C  0.50167349  0.37127472  0.61924879    -0.08300
C3812       C  0.50327352  0.39564341  0.64063049    -0.05670
C3813       C  0.53185338  0.40723515  0.65066067     0.00260
C3814       C  0.56008546  0.39170144  0.64196803    -0.08210
C3815       C  0.59200257  0.40212981  0.65317942     0.62170
H3816       H  0.57966606  0.35614167  0.61166646     0.12870
H3817       H  0.48198160  0.40753999  0.64750715     0.12880
C3818       C  0.46955236  0.36227667  0.60707717     0.62410
F3819       F  0.61438838  0.37933668  0.64791376    -0.22760
F3820       F  0.59102771  0.40807860  0.68498192    -0.20090
F3821       F  0.60126061  0.42875939  0.63723634    -0.19770
F3822       F  0.46789302  0.33026341  0.60252860    -0.19820
F3823       F  0.46374253  0.37800774  0.57960592    -0.20140
F3824       F  0.44590409  0.37044535  0.62760328    -0.22810
C3825       C  0.60906425  0.39698492  0.51911198    -0.05650
C3826       C  0.62227562  0.36714504  0.51777087     0.00270
C3827       C  0.65209913  0.36313503  0.50469253    -0.08300
C3828       C  0.66704539  0.38831648  0.49040195    -0.05670
C3829       C  0.65323725  0.41787071  0.49026112     0.00260
C3830       C  0.62313116  0.42213093  0.50371531    -0.08210
C3831       C  0.60421114  0.45200845  0.50115814     0.62170
H3832       H  0.58539987  0.39956618  0.52799800     0.12870
H3833       H  0.69042068  0.38526567  0.48104087     0.12880
C3834       C  0.66753597  0.33182371  0.50453757     0.62410
F3835       F  0.57533766  0.44509053  0.48862710    -0.22760
F3836       F  0.61815601  0.47411118  0.48203550    -0.20090
F3837       F  0.59978706  0.46461542  0.53067220    -0.19770
F3838       F  0.66350920  0.31750444  0.47585112    -0.19820
F3839       F  0.65466001  0.31339409  0.52772812    -0.20140
F3840       F  0.69891288  0.33549548  0.51039882    -0.22810
loop_ 
_geom_bond_atom_site_label_1 
_geom_bond_atom_site_label_2 
_geom_bond_distance 
_geom_bond_site_symmetry_2 
_ccdc_geom_bond_type 
O1          Zr13   2.363       .  S
O1            C3   1.273       .  A
O2          Zr39   2.424       .  S
O2            C3   1.284       .  A
C3         C3826   1.441       .  S
O4          Zr16   2.339       .  S
O4            C6   1.269       .  A
O5          Zr40   2.439       .  S
O5            C6   1.287       .  A
C6         C3794   1.444       .  S
O7          Zr16   2.353       .  S
O7            C9   1.268       .  A
O8          Zr39   2.448       .  S
O8            C9   1.289       .  A
C9         C3810   1.458       .  S
O10         Zr13   2.343       .  S
O10          C12   1.269       .  A
O11         Zr40   2.455       .  S
O11          C12   1.290       .  A
C12        C3778   1.449       .  S
Zr13         O14   2.435       .  S
Zr13         O15   2.438       .  S
Zr13         O19   2.350       .  S
Zr13         O20   2.343       .  S
Zr13         O43   2.342       .  S
Zr13         O45   2.303       .  S
O14          H57   0.991       .  S
O15          H56   0.990       .  S
O15          H60   0.990       .  S
Zr16         O17   2.431       .  S
Zr16         O18   2.437       .  S
Zr16         O20   2.318       .  S
Zr16         O19   2.330       .  S
Zr16         O44   2.313       .  S
Zr16         O46   2.336       .  S
O17          H58   0.990       .  S
O17          H61   0.989       .  S
O18          H51   0.990       .  S
O19         Zr39   2.369       .  S
O20         Zr40   2.371       .  S
O20          H47   0.963       .  S
O21         Zr33   2.561       .  S
O21          C23   1.310       .  A
O22         Zr40   2.403       .  S
O22          C23   1.283       .  A
C23        C3730   1.538       .  S
O24         Zr36   2.528       .  S
O24          C26   1.303       .  A
O25         Zr39   2.441       .  S
O25          C26   1.291       .  A
C26        C3717   1.534       .  S
O27         Zr36   2.520       .  S
O27          C29   1.303       .  A
O28         Zr40   2.427       .  S
O28          C29   1.285       .  A
C29        C3746   1.526       .  S
O30         Zr33   2.540       .  S
O30          C32   1.308       .  A
O31         Zr39   2.451       .  S
O31          C32   1.295       .  A
C32        C3762   1.534       .  S
Zr33         O34   2.435       .  S
Zr33         O35   2.435       .  S
Zr33         O41   2.410       .  S
Zr33         O42   2.421       .  S
Zr33         O45   2.392       .  S
Zr33         O43   2.371       .  S
O34          H54   0.990       .  S
O34          H59   0.990       .  S
O35          H55   0.989       .  S
Zr36         O37   2.434       .  S
Zr36         O38   2.439       .  S
Zr36         O42   2.405       .  S
Zr36         O41   2.407       .  S
Zr36         O46   2.367       .  S
Zr36         O44   2.373       .  S
O37          H53   0.990       .  S
O38          H52   0.990       .  S
O38          H62   0.990       .  S
Zr39         O42   2.409       .  S
Zr39         O44   2.382       .  S
Zr39         O45   2.404       .  S
Zr40         O41   2.417       .  S
Zr40         O43   2.392       .  S
Zr40         O46   2.366       .  S
O41          H49   0.966       .  S
O44          H48   0.962       .  S
O45          H50   0.963       .  S
O63         Zr75   2.400       .  S
O63          C65   1.279       .  A
O64        Zr101   2.421       .  S
O64          C65   1.285       .  A
C65        C3698   1.464       .  S
O66         Zr78   2.430       .  S
O66          C68   1.287       .  A
O67        Zr102   2.398       .  S
O67          C68   1.279       .  A
C68        C3666   1.464       .  S
O69         Zr78   2.410       .  S
O69          C71   1.275       .  A
O70        Zr101   2.382       .  S
O70          C71   1.275       .  A
C71        C3781   1.443       .  S
O72         Zr75   2.408       .  S
O72          C74   1.269       .  A
O73        Zr102   2.462       .  S
O73          C74   1.278       .  A
C74        C3682   1.494       .  S
Zr75         O76   2.437       .  S
Zr75         O77   2.444       .  S
Zr75         O81   2.338       .  S
Zr75         O82   2.354       .  S
Zr75        O105   2.328       .  S
Zr75        O107   2.343       .  S
O76         H119   0.990       .  S
O77         H118   0.989       .  S
O77         H122   0.985       .  S
Zr78         O79   2.439       .  S
Zr78         O80   2.438       .  S
Zr78         O82   2.359       .  S
Zr78         O81   2.356       .  S
Zr78        O106   2.356       .  S
Zr78        O108   2.349       .  S
O79         H120   0.990       .  S
O79         H123   0.990       .  S
O80         H113   0.990       .  S
O81        Zr101   2.380       .  S
O82        Zr102   2.405       .  S
O82         H109   0.965       .  S
O83         Zr95   2.531       .  S
O83          C85   1.305       .  A
O84        Zr102   2.420       .  S
O84          C85   1.278       .  A
C85        C3650   1.525       .  S
O86         Zr98   2.513       .  S
O86          C88   1.302       .  A
O87        Zr101   2.468       .  S
O87          C88   1.293       .  A
C88        C3634   1.539       .  S
O89         Zr98   2.512       .  S
O89          C91   1.300       .  A
O90        Zr102   2.440       .  S
O90          C91   1.289       .  A
C91        C3618   1.517       .  S
O92         Zr95   2.544       .  S
O92          C94   1.306       .  A
O93        Zr101   2.435       .  S
O93          C94   1.290       .  A
C94        C3605   1.540       .  S
Zr95         O96   2.438       .  S
Zr95         O97   2.435       .  S
Zr95        O103   2.431       .  S
Zr95        O104   2.410       .  S
Zr95        O107   2.383       .  S
Zr95        O105   2.351       .  S
O96         H116   0.990       .  S
O96         H121   0.989       .  S
O97         H117   0.990       .  S
Zr98         O99   2.434       .  S
Zr98        O100   2.439       .  S
Zr98        O104   2.414       .  S
Zr98        O103   2.410       .  S
Zr98        O108   2.375       .  S
Zr98        O106   2.379       .  S
O99         H115   0.990       .  S
O100        H114   0.990       .  S
O100        H124   0.990       .  S
Zr101       O104   2.391       .  S
Zr101       O106   2.404       .  S
Zr101       O107   2.388       .  S
Zr102       O103   2.422       .  S
Zr102       O105   2.373       .  S
Zr102       O108   2.386       .  S
O103        H111   0.966       .  S
O106        H110   0.963       .  S
O107        H112   0.962       .  S
O125       Zr137   2.427       .  S
O125        C127   1.283       .  A
O126       Zr163   2.426       .  S
O126        C127   1.285       .  A
C127       C3685   1.498       .  S
O128       Zr140   2.392       .  S
O128        C130   1.275       .  A
O129       Zr164   2.418       .  S
O129        C130   1.285       .  A
C130       C3570   1.474       .  S
O131       Zr140   2.427       .  S
O131        C133   1.285       .  A
O132       Zr163   2.360       .  S
O132        C133   1.274       .  A
C133       C3557   1.435       .  S
O134       Zr137   2.404       .  S
O134        C136   1.284       .  A
O135       Zr164   2.390       .  S
O135        C136   1.278       .  A
C136       C3586   1.454       .  S
Zr137       O138   2.433       .  S
Zr137       O139   2.435       .  S
Zr137       O143   2.354       .  S
Zr137       O144   2.359       .  S
Zr137       O167   2.343       .  S
Zr137       O169   2.352       .  S
O138        H181   0.990       .  S
O139        H180   0.990       .  S
O139        H184   0.990       .  S
Zr140       O141   2.436       .  S
Zr140       O142   2.435       .  S
Zr140       O144   2.354       .  S
Zr140       O143   2.346       .  S
Zr140       O168   2.329       .  S
Zr140       O170   2.367       .  S
O141        H182   0.990       .  S
O141        H185   0.990       .  S
O142        H175   0.990       .  S
O143       Zr163   2.382       .  S
O144       Zr164   2.396       .  S
O144        H171   0.966       .  S
O145       Zr157   2.523       .  S
O145        C147   1.302       .  A
O146       Zr164   2.434       .  S
O146        C147   1.288       .  A
C147       C3493   1.533       .  S
O148       Zr160   2.508       .  S
O148        C150   1.299       .  A
O149       Zr163   2.439       .  S
O149        C150   1.291       .  A
C150       C3522   1.511       .  S
O151       Zr160   2.511       .  S
O151        C153   1.299       .  A
O152       Zr164   2.415       .  S
O152        C153   1.280       .  A
C153       C3506   1.524       .  S
O154       Zr157   2.537       .  S
O154        C156   1.305       .  A
O155       Zr163   2.394       .  S
O155        C156   1.274       .  A
C156       C3541   1.521       .  S
Zr157       O158   2.436       .  S
Zr157       O159   2.435       .  S
Zr157       O165   2.423       .  S
Zr157       O166   2.403       .  S
Zr157       O169   2.380       .  S
Zr157       O167   2.355       .  S
O158        H178   0.990       .  S
O158        H183   0.990       .  S
O159        H179   0.990       .  S
Zr160       O161   2.435       .  S
Zr160       O162   2.437       .  S
Zr160       O166   2.411       .  S
Zr160       O165   2.407       .  S
Zr160       O170   2.363       .  S
Zr160       O168   2.373       .  S
O161        H177   0.990       .  S
O162        H176   0.990       .  S
O162        H186   0.990       .  S
Zr163       O166   2.381       .  S
Zr163       O168   2.364       .  S
Zr163       O169   2.375       .  S
Zr164       O165   2.398       .  S
Zr164       O167   2.367       .  S
Zr164       O170   2.370       .  S
O165        H173   0.966       .  S
O168        H172   0.959       .  S
O169        H174   0.964       .  S
O187       Zr199   2.358       .  S
O187        C189   1.272       .  A
O188       Zr225   2.438       .  S
O188        C189   1.289       .  A
C189       C3829   1.451       .  S
O190       Zr202   2.413       .  S
O190        C192   1.284       .  A
O191       Zr226   2.408       .  S
O191        C192   1.282       .  A
C192       C3589   1.458       .  S
O193       Zr202   2.428       .  S
O193        C195   1.288       .  A
O194       Zr225   2.377       .  S
O194        C195   1.275       .  A
C195       C3701   1.459       .  S
O196       Zr199   2.432       .  S
O196        C198   1.287       .  A
O197       Zr226   2.381       .  S
O197        C198   1.277       .  A
C198       C3474   1.441       .  S
Zr199       O200   2.428       .  S
Zr199       O201   2.434       .  S
Zr199       O205   2.370       .  S
Zr199       O206   2.328       .  S
Zr199       O229   2.332       .  S
Zr199       O231   2.374       .  S
O200        H243   0.990       .  S
O201        H242   0.990       .  S
O201        H246   0.990       .  S
Zr202       O203   2.437       .  S
Zr202       O204   2.435       .  S
Zr202       O206   2.324       .  S
Zr202       O205   2.351       .  S
Zr202       O230   2.319       .  S
Zr202       O232   2.364       .  S
O203        H244   0.990       .  S
O203        H247   0.990       .  S
O204        H237   0.990       .  S
O205       Zr225   2.389       .  S
O206       Zr226   2.380       .  S
O206        H233   0.961       .  S
O207       Zr219   2.524       .  S
O207        C209   1.304       .  A
O208       Zr226   2.439       .  S
O208        C209   1.287       .  A
C209       C3426   1.519       .  S
O210       Zr222   2.504       .  S
O210        C212   1.300       .  A
O211       Zr225   2.472       .  S
O211        C212   1.295       .  A
C212       C3461   1.508       .  S
O213       Zr222   2.540       .  S
O213        C215   1.304       .  A
O214       Zr226   2.386       .  S
O214        C215   1.270       .  A
C215       C3413   1.525       .  S
O216       Zr219   2.541       .  S
O216        C218   1.304       .  A
O217       Zr225   2.412       .  S
O217        C218   1.285       .  A
C218       C3442   1.538       .  S
Zr219       O220   2.435       .  S
Zr219       O221   2.435       .  S
Zr219       O227   2.414       .  S
Zr219       O228   2.408       .  S
Zr219       O231   2.370       .  S
Zr219       O229   2.374       .  S
O220        H240   0.990       .  S
O220        H245   0.990       .  S
O221        H241   0.990       .  S
Zr222       O223   2.434       .  S
Zr222       O224   2.436       .  S
Zr222       O228   2.420       .  S
Zr222       O227   2.406       .  S
Zr222       O232   2.355       .  S
Zr222       O230   2.387       .  S
O223        H239   0.990       .  S
O224        H238   0.990       .  S
O224        H248   0.990       .  S
Zr225       O228   2.389       .  S
Zr225       O230   2.384       .  S
Zr225       O231   2.390       .  S
Zr226       O227   2.394       .  S
Zr226       O229   2.367       .  S
Zr226       O232   2.382       .  S
O227        H235   0.966       .  S
O230        H234   0.962       .  S
O231        H236   0.964       .  S
O249       Zr261   2.446       .  S
O249        C251   1.288       .  A
O250       Zr287   2.395       .  S
O250        C251   1.280       .  A
C251       C3397   1.458       .  S
O252       Zr264   2.392       .  S
O252        C254   1.278       .  A
O253       Zr288   2.419       .  S
O253        C254   1.283       .  A
C254       C3477   1.440       .  S
O255       Zr264   2.382       .  S
O255        C257   1.274       .  A
O256       Zr287   2.434       .  S
O256        C257   1.290       .  A
C257       C3813   1.464       .  S
O258       Zr261   2.429       .  S
O258        C260   1.290       .  A
O259       Zr288   2.394       .  S
O259        C260   1.278       .  A
C260       C3573   1.466       .  S
Zr261       O262   2.434       .  S
Zr261       O263   2.437       .  S
Zr261       O267   2.358       .  S
Zr261       O268   2.336       .  S
Zr261       O291   2.358       .  S
Zr261       O293   2.343       .  S
O262        H305   0.990       .  S
O263        H304   0.990       .  S
O263        H308   0.990       .  S
Zr264       O265   2.437       .  S
Zr264       O266   2.433       .  S
Zr264       O268   2.353       .  S
Zr264       O267   2.362       .  S
Zr264       O292   2.355       .  S
Zr264       O294   2.349       .  S
O265        H306   0.990       .  S
O265        H309   0.990       .  S
O266        H299   0.990       .  S
O267       Zr287   2.380       .  S
O268       Zr288   2.393       .  S
O268        H295   0.964       .  S
O269       Zr281   2.525       .  S
O269        C271   1.301       .  A
O270       Zr288   2.434       .  S
O270        C271   1.288       .  A
C271       C3330   1.538       .  S
O272       Zr284   2.550       .  S
O272        C274   1.304       .  A
O273       Zr287   2.403       .  S
O273        C274   1.281       .  A
C274       C3381   1.529       .  S
O275       Zr284   2.523       .  S
O275        C277   1.302       .  A
O276       Zr288   2.442       .  S
O276        C277   1.290       .  A
C277       C3346   1.530       .  S
O278       Zr281   2.510       .  S
O278        C280   1.302       .  A
O279       Zr287   2.447       .  S
O279        C280   1.288       .  A
C280       C3362   1.528       .  S
Zr281       O282   2.438       .  S
Zr281       O283   2.434       .  S
Zr281       O289   2.416       .  S
Zr281       O290   2.404       .  S
Zr281       O293   2.385       .  S
Zr281       O291   2.350       .  S
O282        H302   0.989       .  S
O282        H307   0.989       .  S
O283        H303   0.990       .  S
Zr284       O285   2.435       .  S
Zr284       O286   2.436       .  S
Zr284       O290   2.403       .  S
Zr284       O289   2.417       .  S
Zr284       O294   2.376       .  S
Zr284       O292   2.367       .  S
O285        H301   0.990       .  S
O286        H300   0.989       .  S
O286        H310   0.990       .  S
Zr287       O290   2.390       .  S
Zr287       O292   2.385       .  S
Zr287       O293   2.385       .  S
Zr288       O289   2.405       .  S
Zr288       O291   2.381       .  S
Zr288       O294   2.372       .  S
O289        H297   0.965       .  S
O292        H296   0.962       .  S
O293        H298   0.964       .  S
O311       Zr323   2.335       .  S
O311        C313   1.270       .  A
O312       Zr349   2.446       .  S
O312        C313   1.288       .  A
C313       C3797   1.440       .  S
O314       Zr326   2.381       .  S
O314        C316   1.277       .  A
O315       Zr350   2.386       .  S
O315        C316   1.278       .  A
C316       C3554   1.432       .  S
O317       Zr326   2.410       .  S
O317        C319   1.281       .  A
O318       Zr349   2.434       .  S
O318        C319   1.288       .  A
C319       C3394   1.461       .  S
O320       Zr323   2.404       .  S
O320        C322   1.281       .  A
O321       Zr350   2.434       .  S
O321        C322   1.286       .  A
C322       C3669   1.464       .  S
Zr323       O324   2.430       .  S
Zr323       O325   2.434       .  S
Zr323       O329   2.351       .  S
Zr323       O330   2.335       .  S
Zr323       O353   2.322       .  S
Zr323       O355   2.359       .  S
O324        H367   0.990       .  S
O325        H366   0.990       .  S
O325        H370   0.990       .  S
Zr326       O327   2.438       .  S
Zr326       O328   2.437       .  S
Zr326       O330   2.341       .  S
Zr326       O329   2.347       .  S
Zr326       O354   2.323       .  S
Zr326       O356   2.358       .  S
O327        H368   0.990       .  S
O327        H371   0.990       .  S
O328        H361   0.990       .  S
O329       Zr349   2.366       .  S
O330       Zr350   2.371       .  S
O330        H357   0.960       .  S
O331       Zr343   2.535       .  S
O331        C333   1.306       .  A
O332       Zr350   2.422       .  S
O332        C333   1.282       .  A
C333       C3282   1.524       .  S
O334       Zr346   2.514       .  S
O334        C336   1.304       .  A
O335       Zr349   2.444       .  S
O335        C336   1.290       .  A
C336       C3266   1.514       .  S
O337       Zr346   2.562       .  S
O337        C339   1.308       .  A
O338       Zr350   2.404       .  S
O338        C339   1.279       .  A
C339       C3298   1.531       .  S
O340       Zr343   2.515       .  S
O340        C342   1.302       .  A
O341       Zr349   2.422       .  S
O341        C342   1.286       .  A
C342       C3317   1.514       .  S
Zr343       O344   2.436       .  S
Zr343       O345   2.436       .  S
Zr343       O351   2.404       .  S
Zr343       O352   2.409       .  S
Zr343       O355   2.369       .  S
Zr343       O353   2.357       .  S
O344        H364   0.990       .  S
O344        H369   0.990       .  S
O345        H365   0.990       .  S
Zr346       O347   2.434       .  S
Zr346       O348   2.436       .  S
Zr346       O352   2.419       .  S
Zr346       O351   2.409       .  S
Zr346       O356   2.354       .  S
Zr346       O354   2.401       .  S
O347        H363   0.990       .  S
O348        H362   0.990       .  S
O348        H372   0.990       .  S
Zr349       O352   2.405       .  S
Zr349       O354   2.395       .  S
Zr349       O355   2.390       .  S
Zr350       O351   2.397       .  S
Zr350       O353   2.357       .  S
Zr350       O356   2.387       .  S
O351        H359   0.966       .  S
O354        H358   0.963       .  S
O355        H360   0.963       .  S
O373       Zr385   2.417       .  S
O373        C375   1.285   1_554  A
O374       Zr411   2.416       .  S
O374        C375   1.282       .  A
C375       C3250   1.465       .  S
O376       Zr388   2.372       .  S
O376        C378   1.275   1_556  A
O377       Zr412   2.443       .  S
O377        C378   1.287       .  A
C378       C3234   1.452       .  S
O379       Zr388   2.403       .  S
O379        C381   1.272       .  A
O380       Zr411   2.402       .  S
O380        C381   1.273       .  A
C381       C3205   1.444       .  S
O382       Zr385   2.415       .  S
O382        C384   1.285       .  A
O383       Zr412   2.366       .  S
O383        C384   1.274       .  A
C384       C3218   1.456       .  S
Zr385       O386   2.435       .  S
Zr385       O387   2.438       .  S
Zr385       O391   2.341   1_554  S
Zr385       O392   2.344       .  S
Zr385       O415   2.347       .  S
Zr385       O417   2.345       .  S
O386        H429   0.990       .  S
O387        H428   0.990       .  S
O387        H432   0.990       .  S
Zr388       O389   2.438       .  S
Zr388       O390   2.438       .  S
Zr388       O392   2.368   1_556  S
Zr388       O391   2.353       .  S
Zr388       O416   2.340       .  S
Zr388       O418   2.367       .  S
O389        H430   0.990       .  S
O389        H433   0.990       .  S
O390        H423   0.990       .  S
O391       Zr411   2.394       .  S
O392       Zr412   2.385       .  S
O392        H419   0.965       .  S
O393       Zr405   2.518       .  S
O393        C395   1.301       .  A
O394       Zr412   2.429       .  S
O394        C395   1.288       .  A
C395       C3170   1.525       .  S
O396       Zr408   2.488       .  S
O396        C398   1.298       .  A
O397       Zr411   2.438       .  S
O397        C398   1.291       .  A
C398       C3189   1.503       .  S
O399       Zr408   2.536       .  S
O399        C401   1.303       .  A
O400       Zr412   2.395       .  S
O400        C401   1.275   1_554  A
C401       C3138   1.528       .  S
O402       Zr405   2.542       .  S
O402        C404   1.305   1_554  A
O403       Zr411   2.417       .  S
O403        C404   1.283       .  A
C404       C3157   1.527       .  S
Zr405       O406   2.435       .  S
Zr405       O407   2.436       .  S
Zr405       O413   2.418       .  S
Zr405       O414   2.405   1_554  S
Zr405       O417   2.370       .  S
Zr405       O415   2.362       .  S
O406        H426   0.990       .  S
O406        H431   0.990       .  S
O407        H427   0.990       .  S
Zr408       O409   2.435       .  S
Zr408       O410   2.437       .  S
Zr408       O414   2.422       .  S
Zr408       O413   2.398   1_556  S
Zr408       O418   2.364       .  S
Zr408       O416   2.386       .  S
O409        H425   0.990       .  S
O410        H424   0.990       .  S
O410        H434   0.990       .  S
Zr411       O414   2.390       .  S
Zr411       O416   2.399       .  S
Zr411       O417   2.388   1_556  S
Zr412       O413   2.393       .  S
Zr412       O415   2.370       .  S
Zr412       O418   2.370   1_554  S
O413        H421   0.966       .  S
O416        H420   0.963       .  S
O417        H422   0.961       .  S
O435       Zr447   2.460       .  S
O435        C437   1.291   1_455  A
O436       Zr473   2.341       .  S
O436        C437   1.273       .  A
C437       C3106   1.443       .  S
O438       Zr450   2.384   1_455  S
O438        C440   1.276       .  A
O439       Zr474   2.458       .  S
O439        C440   1.286       .  A
C440       C3122   1.470       .  S
O441       Zr450   2.359       .  S
O441        C443   1.269       .  A
O442       Zr473   2.463       .  S
O442        C443   1.289       .  A
C443       C3202   1.455       .  S
O444       Zr447   2.376       .  S
O444        C446   1.262       .  A
O445       Zr474   2.433       .  S
O445        C446   1.263       .  A
C446       C3090   1.468       .  S
Zr447       O448   2.436       .  S
Zr447       O449   2.432       .  S
Zr447       O453   2.359       .  S
Zr447       O454   2.379       .  S
Zr447       O477   2.376       .  S
Zr447       O479   2.339       .  S
O448        H491   0.990       .  S
O449        H490   0.989       .  S
O449        H494   0.990       .  S
Zr450       O451   2.448   1_655  S
Zr450       O452   2.434       .  S
Zr450       O454   2.349   1_655  S
Zr450       O453   2.336   1_655  S
Zr450       O478   2.361       .  S
Zr450       O480   2.355   1_655  S
O451        H492   0.988       .  S
O451        H495   0.986   1_455  S
O452        H485   0.991       .  S
O453       Zr473   2.376   1_455  S
O454       Zr474   2.439       .  S
O454        H481   0.966       .  S
O455       Zr467   2.499       .  S
O455        C457   1.297       .  A
O456       Zr474   2.418       .  S
O456        C457   1.282       .  A
C457       C3029   1.510       .  S
O458       Zr470   2.549       .  S
O458        C460   1.308       .  A
O459       Zr473   2.409       .  S
O459        C460   1.283       .  A
C460       C3077   1.511       .  S
O461       Zr470   2.521   1_455  S
O461        C463   1.303       .  A
O462       Zr474   2.429       .  S
O462        C463   1.282       .  A
C463       C3058   1.520       .  S
O464       Zr467   2.515       .  S
O464        C466   1.301       .  A
O465       Zr473   2.461       .  S
O465        C466   1.293   1_655  A
C466       C3045   1.513       .  S
Zr467       O468   2.434       .  S
Zr467       O469   2.436       .  S
Zr467       O475   2.422       .  S
Zr467       O476   2.403   1_455  S
Zr467       O479   2.385       .  S
Zr467       O477   2.361       .  S
O468        H488   0.990       .  S
O468        H493   0.990       .  S
O469        H489   0.990       .  S
Zr470       O471   2.435   1_655  S
Zr470       O472   2.438       .  S
Zr470       O476   2.408       .  S
Zr470       O475   2.410   1_655  S
Zr470       O480   2.375   1_655  S
Zr470       O478   2.349       .  S
O471        H487   0.990   1_455  S
O472        H486   0.990       .  S
O472        H496   0.990       .  S
Zr473       O476   2.389       .  S
Zr473       O478   2.378       .  S
Zr473       O479   2.389   1_655  S
Zr474       O475   2.418       .  S
Zr474       O477   2.430       .  S
Zr474       O480   2.375       .  S
O475        H483   0.966       .  S
O478        H482   0.958       .  S
O479        H484   0.956       .  S
O497       Zr509   2.361   1_556  S
O497        C499   1.273       .  A
O498       Zr535   2.451       .  S
O498        C499   1.291       .  A
C499       C2994   1.444       .  S
O500       Zr512   2.336       .  S
O500        C502   1.268       .  A
O501       Zr536   2.424       .  S
O501        C502   1.286   1_554  A
C502       C3010   1.445   1_556  S
O503       Zr512   2.418       .  S
O503        C505   1.275       .  A
O504       Zr535   2.442       .  S
O504        C505   1.280       .  A
C505       C3093   1.474       .  S
O506       Zr509   2.366       .  S
O506        C508   1.274       .  A
O507       Zr536   2.419       .  S
O507        C508   1.284       .  A
C508       C2978   1.437       .  S
Zr509       O510   2.435       .  S
Zr509       O511   2.439       .  S
Zr509       O515   2.346   1_554  S
Zr509       O516   2.322   1_554  S
Zr509       O539   2.348       .  S
Zr509       O541   2.332   1_554  S
O510        H553   0.990   1_554  S
O511        H552   0.989       .  S
O511        H556   0.990       .  S
Zr512       O513   2.441       .  S
Zr512       O514   2.443       .  S
Zr512       O516   2.360       .  S
Zr512       O515   2.353       .  S
Zr512       O540   2.309       .  S
Zr512       O542   2.370       .  S
O513        H554   0.990       .  S
O513        H557   0.990       .  S
O514        H547   0.990       .  S
O515       Zr535   2.384       .  S
O516       Zr536   2.389   1_556  S
O516        H543   0.965   1_556  S
O517       Zr529   2.519       .  S
O517        C519   1.301       .  A
O518       Zr536   2.440       .  S
O518        C519   1.291       .  A
C519       C2930   1.529       .  S
O520       Zr532   2.498       .  S
O520        C522   1.300       .  A
O521       Zr535   2.451       .  S
O521        C522   1.291       .  A
C522       C2914   1.501       .  S
O523       Zr532   2.526       .  S
O523        C525   1.302       .  A
O524       Zr536   2.444       .  S
O524        C525   1.292   1_554  A
C525       C2949   1.531       .  S
O526       Zr529   2.517       .  S
O526        C528   1.299   1_554  A
O527       Zr535   2.414       .  S
O527        C528   1.288       .  A
C528       C2962   1.513       .  S
Zr529       O530   2.434       .  S
Zr529       O531   2.434       .  S
Zr529       O537   2.410       .  S
Zr529       O538   2.410   1_554  S
Zr529       O541   2.377   1_554  S
Zr529       O539   2.364       .  S
O530        H550   0.990       .  S
O530        H555   0.990       .  S
O531        H551   0.990       .  S
Zr532       O533   2.433       .  S
Zr532       O534   2.437       .  S
Zr532       O538   2.411       .  S
Zr532       O537   2.405   1_556  S
Zr532       O542   2.370       .  S
Zr532       O540   2.391       .  S
O533        H549   0.990       .  S
O534        H548   0.990       .  S
O534        H558   0.990       .  S
Zr535       O538   2.408       .  S
Zr535       O540   2.391       .  S
Zr535       O541   2.388       .  S
Zr536       O537   2.404       .  S
Zr536       O539   2.375       .  S
Zr536       O542   2.384   1_554  S
O537        H545   0.966       .  S
O540        H544   0.960       .  S
O541        H546   0.960       .  S
O559       Zr571   2.416       .  S
O559        C561   1.281   1_455  A
O560       Zr597   2.424       .  S
O560        C561   1.285       .  A
C561       C2898   1.458       .  S
O562       Zr574   2.422   1_455  S
O562        C564   1.287       .  A
O563       Zr598   2.389       .  S
O563        C564   1.279       .  A
C564       C2882   1.458       .  S
O565       Zr574   2.432       .  S
O565        C567   1.289       .  A
O566       Zr597   2.375       .  S
O566        C567   1.275       .  A
C567       C3221   1.460       .  S
O568       Zr571   2.387       .  S
O568        C570   1.269       .  A
O569       Zr598   2.454       .  S
O569        C570   1.284       .  A
C570       C2981   1.471       .  S
Zr571       O572   2.437       .  S
Zr571       O573   2.444       .  S
Zr571       O577   2.357   1_455  S
Zr571       O578   2.352       .  S
Zr571       O601   2.382       .  S
Zr571       O603   2.327       .  S
O572        H615   0.990       .  S
O573        H614   0.988       .  S
O573        H618   0.990       .  S
Zr574       O575   2.434       .  S
Zr574       O576   2.435       .  S
Zr574       O578   2.349   1_655  S
Zr574       O577   2.352       .  S
Zr574       O602   2.349       .  S
Zr574       O604   2.365   1_655  S
O575        H616   0.990   1_655  S
O575        H619   0.990       .  S
O576        H609   0.990       .  S
O577       Zr597   2.391       .  S
O578       Zr598   2.406       .  S
O578        H605   0.966       .  S
O579       Zr591   2.484       .  S
O579        C581   1.296       .  A
O580       Zr598   2.415       .  S
O580        C581   1.282       .  A
C581       C2834   1.511       .  S
O582       Zr594   2.527       .  S
O582        C584   1.301       .  A
O583       Zr597   2.443       .  S
O583        C584   1.291       .  A
C584       C2818   1.522       .  S
O585       Zr594   2.484   1_455  S
O585        C587   1.294       .  A
O586       Zr598   2.444       .  S
O586        C587   1.291       .  A
C587       C2866   1.507       .  S
O588       Zr591   2.482       .  S
O588        C590   1.294   1_455  A
O589       Zr597   2.426       .  S
O589        C590   1.289       .  A
C590       C2850   1.502       .  S
Zr591       O592   2.433       .  S
Zr591       O593   2.436       .  S
Zr591       O599   2.398       .  S
Zr591       O600   2.399   1_455  S
Zr591       O603   2.393       .  S
Zr591       O601   2.363       .  S
O592        H612   0.990       .  S
O592        H617   0.990       .  S
O593        H613   0.990       .  S
Zr594       O595   2.434       .  S
Zr594       O596   2.437       .  S
Zr594       O600   2.400       .  S
Zr594       O599   2.404   1_655  S
Zr594       O604   2.377   1_655  S
Zr594       O602   2.351       .  S
O595        H611   0.990       .  S
O596        H610   0.989       .  S
O596        H620   0.990       .  S
Zr597       O600   2.390       .  S
Zr597       O602   2.375       .  S
Zr597       O603   2.366   1_655  S
Zr598       O599   2.405       .  S
Zr598       O601   2.378       .  S
Zr598       O604   2.377       .  S
O599        H607   0.966       .  S
O602        H606   0.954       .  S
O603        H608   0.958       .  S
O621       Zr633   2.397   1_556  S
O621        C623   1.270       .  A
O622       Zr659   2.450       .  S
O622        C623   1.282       .  A
C623       C3237   1.491       .  S
O624       Zr636   2.400       .  S
O624        C626   1.278       .  A
O625       Zr660   2.437       .  S
O625        C626   1.283   1_554  A
C626       C2997   1.472       .  S
O627       Zr636   2.404   1_655  S
O627        C629   1.281       .  A
O628       Zr659   2.395       .  S
O628        C629   1.280       .  A
C629       C3109   1.442       .  S
O630       Zr633   2.399   1_455  S
O630        C632   1.279       .  A
O631       Zr660   2.389       .  S
O631        C632   1.278       .  A
C632       C2885   1.446       .  S
Zr633       O634   2.431       .  S
Zr633       O635   2.440       .  S
Zr633       O639   2.339   1_554  S
Zr633       O640   2.357   1_654  S
Zr633       O663   2.343       .  S
Zr633       O665   2.369   1_554  S
O634        H677   0.990       .  S
O635        H676   0.990       .  S
O635        H680   0.990       .  S
Zr636       O637   2.434       .  S
Zr636       O638   2.437       .  S
Zr636       O640   2.371       .  S
Zr636       O639   2.319   1_455  S
Zr636       O664   2.330       .  S
Zr636       O666   2.343       .  S
O637        H678   0.988       .  S
O637        H681   0.990       .  S
O638        H671   0.990       .  S
O639       Zr659   2.376       .  S
O640       Zr660   2.395   1_556  S
O640        H667   0.966   1_556  S
O641       Zr653   2.529       .  S
O641        C643   1.303   1_655  A
O642       Zr660   2.432       .  S
O642        C643   1.288       .  A
C643       C2805   1.530       .  S
O644       Zr656   2.507       .  S
O644        C646   1.300   1_455  A
O645       Zr659   2.476       .  S
O645        C646   1.299       .  A
C646       C2773   1.532       .  S
O647       Zr656   2.541       .  S
O647        C649   1.307       .  A
O648       Zr660   2.412   1_556  S
O648        C649   1.281       .  A
C649       C2786   1.515       .  S
O650       Zr653   2.522   1_556  S
O650        C652   1.304       .  A
O651       Zr659   2.444       .  S
O651        C652   1.290       .  A
C652       C2754   1.526       .  S
Zr653       O654   2.434       .  S
Zr653       O655   2.436       .  S
Zr653       O661   2.412   1_654  S
Zr653       O662   2.411   1_554  S
Zr653       O665   2.382   1_554  S
Zr653       O663   2.367       .  S
O654        H674   0.990       .  S
O654        H679   0.990   1_554  S
O655        H675   0.990       .  S
Zr656       O657   2.435       .  S
Zr656       O658   2.438       .  S
Zr656       O662   2.416   1_455  S
Zr656       O661   2.406       .  S
Zr656       O666   2.349       .  S
Zr656       O664   2.393       .  S
O657        H673   0.990       .  S
O658        H672   0.990       .  S
O658        H682   0.990       .  S
Zr659       O662   2.399       .  S
Zr659       O664   2.397   1_655  S
Zr659       O665   2.414       .  S
Zr660       O661   2.405   1_554  S
Zr660       O663   2.378   1_455  S
Zr660       O666   2.370   1_554  S
O661        H669   0.966   1_556  S
O664        H668   0.962       .  S
O665        H670   0.963       .  S
O683       Zr695   2.393       .  S
O683        C685   1.280       .  A
O684       Zr721   2.434       .  S
O684        C685   1.287   1_554  A
C685       C3253   1.474       .  S
O686       Zr698   2.349       .  S
O686        C688   1.271   1_554  A
O687       Zr722   2.424       .  S
O687        C688   1.285       .  A
C688       C3013   1.433       .  S
O689       Zr698   2.411       .  S
O689        C691   1.282   1_455  A
O690       Zr721   2.429       .  S
O690        C691   1.286       .  A
C691       C2901   1.462       .  S
O692       Zr695   2.448   1_455  S
O692        C694   1.287       .  A
O693       Zr722   2.381       .  S
O693        C694   1.274       .  A
C694       C3125   1.460       .  S
Zr695       O696   2.435   1_655  S
Zr695       O697   2.437       .  S
Zr695       O701   2.367   1_556  S
Zr695       O702   2.316   1_655  S
Zr695       O725   2.341   1_655  S
Zr695       O727   2.351       .  S
O696        H739   0.990   1_455  S
O697        H738   0.990       .  S
O697        H742   0.990       .  S
Zr698       O699   2.434       .  S
Zr698       O700   2.435       .  S
Zr698       O702   2.361   1_554  S
Zr698       O701   2.348   1_455  S
Zr698       O726   2.311       .  S
Zr698       O728   2.369       .  S
O699        H740   0.989       .  S
O699        H743   0.990       .  S
O700        H733   0.990       .  S
O701       Zr721   2.381       .  S
O702       Zr722   2.399       .  S
O702        H729   0.962       .  S
O703       Zr715   2.518   1_455  S
O703        C705   1.302       .  A
O704       Zr722   2.447       .  S
O704        C705   1.288       .  A
C705       C2725   1.514       .  S
O706       Zr718   2.534       .  S
O706        C708   1.304       .  A
O707       Zr721   2.442       .  S
O707        C708   1.292   1_655  A
C708       C2738   1.537       .  S
O709       Zr718   2.570       .  S
O709        C711   1.312   1_554  A
O710       Zr722   2.406       .  S
O710        C711   1.278       .  A
C711       C2706   1.547       .  S
O712       Zr715   2.538       .  S
O712        C714   1.304   1_556  A
O713       Zr721   2.408       .  S
O713        C714   1.280       .  A
C714       C2690   1.514       .  S
Zr715       O716   2.436   1_655  S
Zr715       O717   2.436       .  S
Zr715       O723   2.424   1_655  S
Zr715       O724   2.405   1_656  S
Zr715       O727   2.366       .  S
Zr715       O725   2.356   1_655  S
O716        H736   0.990       .  S
O716        H741   0.990   1_455  S
O717        H737   0.990       .  S
Zr718       O719   2.435       .  S
Zr718       O720   2.437       .  S
Zr718       O724   2.428       .  S
Zr718       O723   2.414   1_554  S
Zr718       O728   2.355       .  S
Zr718       O726   2.386       .  S
O719        H735   0.990       .  S
O720        H734   0.990       .  S
O720        H744   0.990       .  S
Zr721       O724   2.396   1_655  S
Zr721       O726   2.378   1_655  S
Zr721       O727   2.391   1_554  S
Zr722       O723   2.398       .  S
Zr722       O725   2.365       .  S
Zr722       O728   2.385   1_556  S
O723        H731   0.966       .  S
O726        H730   0.959       .  S
O727        H732   0.960       .  S
O745       Zr757   2.361       .  S
O745        C747   1.269   1_554  A
O746       Zr783   2.448       .  S
O746        C747   1.291       .  A
C747       C2674   1.473       .  S
O748       Zr760   2.565       .  S
O748        C750   1.310       .  A
O749       Zr784   2.441       .  S
O749        C750   1.291       .  A
C750       C2594   1.539       .  S
O751       Zr760   2.523       .  S
O751        C753   1.302   1_554  A
O752       Zr783   2.434       .  S
O752        C753   1.289       .  A
C753       C2578   1.530       .  S
O754       Zr757   2.353       .  S
O754        C756   1.273       .  A
O755       Zr784   2.392       .  S
O755        C756   1.279       .  A
C756       C2642   1.425       .  S
Zr757       O758   2.425       .  S
Zr757       O759   2.433       .  S
Zr757       O763   2.339   1_554  S
Zr757       O764   2.307       .  S
Zr757       O787   2.333       .  S
Zr757       O789   2.317   1_554  S
O758        H801   0.991       .  S
O759        H800   0.988   1_554  S
O759        H804   0.989       .  S
Zr760       O761   2.437       .  S
Zr760       O762   2.435   1_554  S
Zr760       O764   2.351       .  S
Zr760       O763   2.365   1_554  S
Zr760       O788   2.420   1_554  S
Zr760       O790   2.408   1_554  S
O761        H802   0.990       .  S
O761        H805   0.990       .  S
O762        H795   0.990       .  S
O763       Zr783   2.373       .  S
O764       Zr784   2.357       .  S
O764        H791   0.957       .  S
O765       Zr777   2.379       .  S
O765        C767   1.275   1_556  A
O766       Zr784   2.410       .  S
O766        C767   1.284       .  A
C767       C2661   1.437       .  S
O768       Zr780   2.502       .  S
O768        C770   1.302       .  A
O769       Zr783   2.442       .  S
O769        C770   1.288       .  A
C770       C2610   1.519       .  S
O771       Zr780   2.559       .  S
O771        C773   1.308       .  A
O772       Zr784   2.402       .  S
O772        C773   1.281   1_554  A
C773       C2562   1.533       .  S
O774       Zr777   2.423       .  S
O774        C776   1.284       .  A
O775       Zr783   2.464       .  S
O775        C776   1.292       .  A
C776       C2626   1.478       .  S
Zr777       O778   2.435       .  S
Zr777       O779   2.435       .  S
Zr777       O785   2.351       .  S
Zr777       O786   2.326       .  S
Zr777       O789   2.353       .  S
Zr777       O787   2.372   1_556  S
O778        H798   0.990       .  S
O778        H803   0.990       .  S
O779        H799   0.990       .  S
Zr780       O781   2.436       .  S
Zr780       O782   2.435       .  S
Zr780       O786   2.381       .  S
Zr780       O785   2.376       .  S
Zr780       O790   2.401       .  S
Zr780       O788   2.428       .  S
O781        H797   0.990       .  S
O782        H796   0.990       .  S
O782        H806   0.990       .  S
Zr783       O786   2.382       .  S
Zr783       O788   2.430       .  S
Zr783       O789   2.370       .  S
Zr784       O785   2.389   1_554  S
Zr784       O787   2.383       .  S
Zr784       O790   2.383   1_554  S
O785        H793   0.964       .  S
O788        H792   0.966       .  S
O789        H794   0.959       .  S
O807       Zr819   2.341       .  S
O807        C809   1.269       .  A
O808       Zr845   2.482   1_545  S
O808        C809   1.297       .  A
C809       C2549   1.450       .  S
O810       Zr822   2.402       .  S
O810        C812   1.279       .  A
O811       Zr846   2.404       .  S
O811        C812   1.282       .  A
C812       C2530   1.440       .  S
O813       Zr822   2.458   1_565  S
O813        C815   1.291       .  A
O814       Zr845   2.410       .  S
O814        C815   1.283       .  A
C815       C2629   1.484       .  S
O816       Zr819   2.426       .  S
O816        C818   1.284       .  A
O817       Zr846   2.417       .  S
O817        C818   1.283       .  A
C818       C2517   1.473       .  S
Zr819       O820   2.434       .  S
Zr819       O821   2.435       .  S
Zr819       O825   2.369       .  S
Zr819       O826   2.315       .  S
Zr819       O849   2.322       .  S
Zr819       O851   2.354       .  S
O820        H863   0.990       .  S
O821        H862   0.990       .  S
O821        H866   0.990       .  S
Zr822       O823   2.439   1_545  S
Zr822       O824   2.437   1_545  S
Zr822       O826   2.352       .  S
Zr822       O825   2.350       .  S
Zr822       O850   2.319   1_545  S
Zr822       O852   2.388       .  S
O823        H864   0.990   1_565  S
O823        H867   0.990       .  S
O824        H857   0.990       .  S
O825       Zr845   2.373   1_545  S
O826       Zr846   2.378       .  S
O826        H853   0.959       .  S
O827       Zr839   2.518       .  S
O827        C829   1.300       .  A
O828       Zr846   2.428       .  S
O828        C829   1.287       .  A
C829       C2485   1.522       .  S
O830       Zr842   2.479       .  S
O830        C832   1.297       .  A
O831       Zr845   2.479       .  S
O831        C832   1.296       .  A
C832       C2501   1.514       .  S
O833       Zr842   2.530   1_545  S
O833        C835   1.303       .  A
O834       Zr846   2.412       .  S
O834        C835   1.284       .  A
C835       C2469   1.531       .  S
O836       Zr839   2.522       .  S
O836        C838   1.298       .  A
O837       Zr845   2.412   1_545  S
O837        C838   1.282       .  A
C838       C2453   1.524       .  S
Zr839       O840   2.435       .  S
Zr839       O841   2.436       .  S
Zr839       O847   2.411       .  S
Zr839       O848   2.404       .  S
Zr839       O851   2.374       .  S
Zr839       O849   2.363       .  S
O840        H860   0.990       .  S
O840        H865   0.990       .  S
O841        H861   0.990       .  S
Zr842       O843   2.434   1_565  S
Zr842       O844   2.435       .  S
Zr842       O848   2.407   1_565  S
Zr842       O847   2.392   1_565  S
Zr842       O852   2.369   1_565  S
Zr842       O850   2.397       .  S
O843        H859   0.990   1_545  S
O844        H858   0.990       .  S
O844        H868   0.989       .  S
Zr845       O848   2.403   1_565  S
Zr845       O850   2.389       .  S
Zr845       O851   2.397   1_565  S
Zr846       O847   2.396       .  S
Zr846       O849   2.368       .  S
Zr846       O852   2.389       .  S
O847        H855   0.966       .  S
O850        H854   0.963       .  S
O851        H856   0.961       .  S
O869       Zr881   2.496       .  S
O869        C871   1.297       .  A
O870       Zr907   2.441       .  S
O870        C871   1.291       .  A
C871       C2370   1.511       .  S
O872       Zr884   2.411       .  S
O872        C874   1.280       .  A
O873       Zr908   2.437       .  S
O873        C874   1.290   1_554  A
C874       C2437   1.475       .  S
O875       Zr884   2.446       .  S
O875        C877   1.281       .  A
O876       Zr907   2.379       .  S
O876        C877   1.267       .  A
C877       C2514   1.459       .  S
O878       Zr881   2.549       .  S
O878        C880   1.307   1_556  A
O879       Zr908   2.396       .  S
O879        C880   1.278       .  A
C880       C2341   1.524       .  S
Zr881       O882   2.436       .  S
Zr881       O883   2.435       .  S
Zr881       O887   2.370       .  S
Zr881       O888   2.360       .  S
Zr881       O911   2.391   1_556  S
Zr881       O913   2.425       .  S
O882        H925   0.990       .  S
O883        H924   0.990       .  S
O883        H928   0.990       .  S
Zr884       O885   2.436       .  S
Zr884       O886   2.445       .  S
Zr884       O888   2.382       .  S
Zr884       O887   2.359       .  S
Zr884       O912   2.348       .  S
Zr884       O914   2.370       .  S
O885        H926   0.988       .  S
O885        H929   0.989       .  S
O886        H919   0.989       .  S
O887       Zr907   2.380       .  S
O888       Zr908   2.380   1_556  S
O888        H915   0.960       .  S
O889       Zr901   2.513       .  S
O889        C891   1.302       .  A
O890       Zr908   2.434       .  S
O890        C891   1.288       .  A
C891       C2386   1.502       .  S
O892       Zr904   2.336   1_556  S
O892        C894   1.269       .  A
O893       Zr907   2.410       .  S
O893        C894   1.283       .  A
C894       C2418   1.434       .  S
O895       Zr904   2.394       .  S
O895        C897   1.280       .  A
O896       Zr908   2.408       .  S
O896        C897   1.280       .  A
C897       C2402   1.478       .  S
O898       Zr901   2.567       .  S
O898        C900   1.308   1_554  A
O899       Zr907   2.413       .  S
O899        C900   1.281       .  A
C900       C2354   1.544       .  S
Zr901       O902   2.438       .  S
Zr901       O903   2.435       .  S
Zr901       O909   2.382       .  S
Zr901       O910   2.345   1_554  S
Zr901       O913   2.404   1_554  S
Zr901       O911   2.424       .  S
O902        H922   0.990       .  S
O902        H927   0.990       .  S
O903        H923   0.990       .  S
Zr904       O905   2.433       .  S
Zr904       O906   2.435       .  S
Zr904       O910   2.369   1_554  S
Zr904       O909   2.317       .  S
Zr904       O914   2.343   1_554  S
Zr904       O912   2.352   1_554  S
O905        H921   0.990       .  S
O906        H920   0.990       .  S
O906        H930   0.990       .  S
Zr907       O910   2.370       .  S
Zr907       O912   2.413       .  S
Zr907       O913   2.397       .  S
Zr908       O909   2.376       .  S
Zr908       O911   2.392       .  S
Zr908       O914   2.378   1_554  S
O909        H917   0.961       .  S
O912        H916   0.965       .  S
O913        H918   0.966       .  S
O931       Zr943   2.353       .  S
O931        C933   1.272       .  A
O932       Zr969   2.413       .  S
O932        C933   1.278       .  A
C933       C2645   1.459       .  S
O934       Zr946   2.401       .  S
O934        C936   1.281       .  A
O935       Zr970   2.409       .  S
O935        C936   1.283       .  A
C936       C2405   1.458       .  S
O937       Zr946   2.444       .  S
O937        C939   1.288   1_545  A
O938       Zr969   2.375       .  S
O938        C939   1.278       .  A
C939       C2322   1.448       .  S
O940       Zr943   2.413   1_545  S
O940        C942   1.272       .  A
O941       Zr970   2.441       .  S
O941        C942   1.280       .  A
C942       C2309   1.475       .  S
Zr943       O944   2.445       .  S
Zr943       O945   2.441       .  S
Zr943       O949   2.335       .  S
Zr943       O950   2.344   1_565  S
Zr943       O973   2.341   1_565  S
Zr943       O975   2.369       .  S
O944        H987   0.988   1_565  S
O945        H986   0.990       .  S
O945        H990   0.989       .  S
Zr946       O947   2.438       .  S
Zr946       O948   2.436       .  S
Zr946       O950   2.368       .  S
Zr946       O949   2.336   1_545  S
Zr946       O974   2.339       .  S
Zr946       O976   2.358       .  S
O947        H988   0.990       .  S
O947        H991   0.990       .  S
O948        H981   0.990       .  S
O949       Zr969   2.369       .  S
O950       Zr970   2.402       .  S
O950        H977   0.966       .  S
O951       Zr963   2.507       .  S
O951        C953   1.299   1_565  A
O952       Zr970   2.436       .  S
O952        C953   1.290       .  A
C953       C2274   1.520       .  S
O954       Zr966   2.511       .  S
O954        C956   1.300   1_545  A
O955       Zr969   2.442       .  S
O955        C956   1.290       .  A
C956       C2290   1.526       .  S
O957       Zr966   2.521       .  S
O957        C959   1.299       .  A
O958       Zr970   2.408       .  S
O958        C959   1.284       .  A
C959       C2245   1.519       .  S
O960       Zr963   2.537       .  S
O960        C962   1.304       .  A
O961       Zr969   2.433       .  S
O961        C962   1.288       .  A
C962       C2258   1.515       .  S
Zr963       O964   2.436       .  S
Zr963       O965   2.436       .  S
Zr963       O971   2.409   1_565  S
Zr963       O972   2.401       .  S
Zr963       O975   2.363       .  S
Zr963       O973   2.365   1_565  S
O964        H984   0.990   1_565  S
O964        H989   0.990       .  S
O965        H985   0.990       .  S
Zr966       O967   2.434       .  S
Zr966       O968   2.437       .  S
Zr966       O972   2.410   1_545  S
Zr966       O971   2.411       .  S
Zr966       O976   2.364       .  S
Zr966       O974   2.389       .  S
O967        H983   0.990       .  S
O968        H982   0.990       .  S
O968        H992   0.990       .  S
Zr969       O972   2.386       .  S
Zr969       O974   2.389   1_565  S
Zr969       O975   2.390       .  S
Zr970       O971   2.412       .  S
Zr970       O973   2.365       .  S
Zr970       O976   2.384       .  S
O971        H979   0.966       .  S
O974        H978   0.963       .  S
O975        H980   0.959       .  S
O993      Zr1005   2.379       .  S
O993        C995   1.273   1_556  A
O994      Zr1031   2.432       .  S
O994        C995   1.287       .  A
C995       C2658   1.451       .  S
O996      Zr1008   2.438   1_556  S
O996        C998   1.288       .  A
O997      Zr1032   2.352       .  S
O997        C998   1.271       .  A
C998       C2421   1.449       .  S
O999      Zr1008   2.398       .  S
O999       C1001   1.273       .  A
O1000     Zr1031   2.439       .  S
O1000      C1001   1.285   1_565  A
C1001      C2306   1.457       .  S
O1002     Zr1005   2.357   1_545  S
O1002      C1004   1.271       .  A
O1003     Zr1032   2.432       .  S
O1003      C1004   1.288       .  A
C1004      C2533   1.432       .  S
Zr1005     O1006   2.435       .  S
Zr1005     O1007   2.435       .  S
Zr1005     O1011   2.344   1_566  S
Zr1005     O1012   2.370   1_565  S
Zr1005     O1035   2.346   1_565  S
Zr1005     O1037   2.340       .  S
O1006      H1049   0.991       .  S
O1007      H1048   0.990       .  S
O1007      H1052   0.991       .  S
Zr1008     O1009   2.439       .  S
Zr1008     O1010   2.436       .  S
Zr1008     O1012   2.313   1_554  S
Zr1008     O1011   2.369       .  S
Zr1008     O1036   2.338       .  S
Zr1008     O1038   2.343   1_554  S
O1009      H1050   0.990       .  S
O1009      H1053   0.990       .  S
O1010      H1043   0.990       .  S
O1011     Zr1031   2.378   1_545  S
O1012     Zr1032   2.374       .  S
O1012      H1039   0.958       .  S
O1013     Zr1025   2.552       .  S
O1013      C1015   1.309   1_565  A
O1014     Zr1032   2.396       .  S
O1014      C1015   1.276       .  A
C1015      C2210   1.528       .  S
O1016     Zr1028   2.504       .  S
O1016      C1018   1.299       .  A
O1017     Zr1031   2.436       .  S
O1017      C1018   1.291   1_565  A
C1018      C2229   1.516       .  S
O1019     Zr1028   2.537   1_556  S
O1019      C1021   1.303       .  A
O1020     Zr1032   2.426       .  S
O1020      C1021   1.286       .  A
C1021      C2194   1.529       .  S
O1022     Zr1025   2.512       .  S
O1022      C1024   1.301       .  A
O1023     Zr1031   2.444       .  S
O1023      C1024   1.292   1_554  A
C1024      C2178   1.519       .  S
Zr1025     O1026   2.438       .  S
Zr1025     O1027   2.434       .  S
Zr1025     O1033   2.408   1_565  S
Zr1025     O1034   2.421   1_556  S
Zr1025     O1037   2.389       .  S
Zr1025     O1035   2.362   1_565  S
O1026      H1046   0.989       .  S
O1026      H1051   0.989   1_565  S
O1027      H1047   0.990       .  S
Zr1028     O1029   2.434   1_554  S
Zr1028     O1030   2.436       .  S
Zr1028     O1034   2.409   1_545  S
Zr1028     O1033   2.409   1_554  S
Zr1028     O1038   2.348   1_554  S
Zr1028     O1036   2.390       .  S
O1029      H1045   0.990   1_556  S
O1030      H1044   0.990       .  S
O1030      H1054   0.990       .  S
Zr1031     O1034   2.403       .  S
Zr1031     O1036   2.399   1_565  S
Zr1031     O1037   2.393   1_554  S
Zr1032     O1033   2.389       .  S
Zr1032     O1035   2.373       .  S
Zr1032     O1038   2.369       .  S
O1033      H1041   0.966       .  S
O1036      H1040   0.962       .  S
O1037      H1042   0.964       .  S
O1055     Zr1067   2.415       .  S
O1055      C1057   1.284   1_545  A
O1056     Zr1093   2.422       .  S
O1056      C1057   1.286       .  A
C1057      C2325   1.450       .  S
O1058     Zr1070   2.363   1_545  S
O1058      C1060   1.273       .  A
O1059     Zr1094   2.423       .  S
O1059      C1060   1.285       .  A
C1060      C2546   1.450       .  S
O1061     Zr1070   2.368       .  S
O1061      C1063   1.275       .  A
O1062     Zr1093   2.457       .  S
O1062      C1063   1.296   1_554  A
C1063      C2677   1.457       .  S
O1064     Zr1067   2.381       .  S
O1064      C1066   1.272   1_554  A
O1065     Zr1094   2.446       .  S
O1065      C1066   1.292       .  A
C1066      C2434   1.481       .  S
Zr1067     O1068   2.436       .  S
Zr1067     O1069   2.442       .  S
Zr1067     O1073   2.352   1_545  S
Zr1067     O1074   2.348   1_554  S
Zr1067     O1097   2.356       .  S
Zr1067     O1099   2.324       .  S
O1068      H1111   0.990       .  S
O1069      H1110   0.990       .  S
O1069      H1114   0.989       .  S
Zr1070     O1071   2.435       .  S
Zr1070     O1072   2.435       .  S
Zr1070     O1074   2.336   1_565  S
Zr1070     O1073   2.315   1_556  S
Zr1070     O1098   2.361       .  S
Zr1070     O1100   2.367   1_565  S
O1071      H1112   0.989   1_565  S
O1071      H1115   0.991       .  S
O1072      H1105   0.987       .  S
O1073     Zr1093   2.370       .  S
O1074     Zr1094   2.386       .  S
O1074      H1101   0.965       .  S
O1075     Zr1087   2.539       .  S
O1075      C1077   1.306   1_554  A
O1076     Zr1094   2.398       .  S
O1076      C1077   1.277       .  A
C1077      C2114   1.528       .  S
O1078     Zr1090   2.569   1_565  S
O1078      C1080   1.307       .  A
O1079     Zr1093   2.399       .  S
O1079      C1080   1.281   1_554  A
C1080      C2130   1.537       .  S
O1081     Zr1090   2.499       .  S
O1081      C1083   1.298       .  A
O1082     Zr1094   2.468       .  S
O1082      C1083   1.294       .  A
C1083      C2146   1.518       .  S
O1084     Zr1087   2.523       .  S
O1084      C1086   1.305       .  A
O1085     Zr1093   2.441       .  S
O1085      C1086   1.290   1_565  A
C1086      C2165   1.515       .  S
Zr1087     O1088   2.434       .  S
Zr1087     O1089   2.435       .  S
Zr1087     O1095   2.414   1_554  S
Zr1087     O1096   2.407       .  S
Zr1087     O1099   2.391       .  S
Zr1087     O1097   2.351       .  S
O1088      H1108   0.990       .  S
O1088      H1113   0.990       .  S
O1089      H1109   0.990       .  S
Zr1090     O1091   2.434       .  S
Zr1090     O1092   2.437   1_545  S
Zr1090     O1096   2.393   1_556  S
Zr1090     O1095   2.403       .  S
Zr1090     O1100   2.390       .  S
Zr1090     O1098   2.328   1_545  S
O1091      H1107   0.990       .  S
O1092      H1106   0.989       .  S
O1092      H1116   0.990       .  S
Zr1093     O1096   2.396   1_565  S
Zr1093     O1098   2.383   1_554  S
Zr1093     O1099   2.393   1_565  S
Zr1094     O1095   2.414       .  S
Zr1094     O1097   2.380   1_556  S
Zr1094     O1100   2.368       .  S
O1095      H1103   0.966       .  S
O1098      H1102   0.955       .  S
O1099      H1104   0.962       .  S
O1117     Zr1129   2.397       .  S
O1117      C1119   1.283       .  A
O1118     Zr1155   2.431       .  S
O1118      C1119   1.283   1_655  A
C1119      C2098   1.482       .  S
O1120     Zr1132   2.379       .  S
O1120      C1122   1.262   1_655  A
O1121     Zr1156   2.467       .  S
O1121      C1122   1.287       .  A
C1122      C2085   1.465   1_455  S
O1123     Zr1132   2.366       .  S
O1123      C1125   1.273       .  A
O1124     Zr1155   2.374       .  S
O1124      C1125   1.274       .  A
C1125      C2050   1.419       .  S
O1126     Zr1129   2.425       .  S
O1126      C1128   1.285       .  A
O1127     Zr1156   2.380       .  S
O1127      C1128   1.279       .  A
C1128      C2066   1.444       .  S
Zr1129     O1130   2.432       .  S
Zr1129     O1131   2.435       .  S
Zr1129     O1135   2.353   1_455  S
Zr1129     O1136   2.345       .  S
Zr1129     O1159   2.348       .  S
Zr1129     O1161   2.346       .  S
O1130      H1173   0.989       .  S
O1131      H1172   0.989       .  S
O1131      H1176   0.990       .  S
Zr1132     O1133   2.422       .  S
Zr1132     O1134   2.436       .  S
Zr1132     O1136   2.332   1_655  S
Zr1132     O1135   2.340       .  S
Zr1132     O1160   2.317       .  S
Zr1132     O1162   2.351   1_655  S
O1133      H1174   0.990       .  S
O1133      H1177   0.990       .  S
O1134      H1167   0.990       .  S
O1135     Zr1155   2.396       .  S
O1136     Zr1156   2.394       .  S
O1136      H1163   0.961       .  S
O1137     Zr1149   2.497       .  S
O1137      C1139   1.297       .  A
O1138     Zr1156   2.444       .  S
O1138      C1139   1.291       .  A
C1139      C1986   1.505       .  S
O1140     Zr1152   2.508       .  S
O1140      C1142   1.301       .  A
O1141     Zr1155   2.495       .  S
O1141      C1142   1.302       .  A
C1142      C2034   1.541       .  S
O1143     Zr1152   2.553   1_455  S
O1143      C1145   1.308       .  A
O1144     Zr1156   2.371       .  S
O1144      C1145   1.270       .  A
C1145      C2002   1.519       .  S
O1146     Zr1149   2.506       .  S
O1146      C1148   1.298       .  A
O1147     Zr1155   2.471   1_455  S
O1147      C1148   1.296       .  A
C1148      C2018   1.511       .  S
Zr1149     O1150   2.434       .  S
Zr1149     O1151   2.437       .  S
Zr1149     O1157   2.403       .  S
Zr1149     O1158   2.416       .  S
Zr1149     O1161   2.368       .  S
Zr1149     O1159   2.375       .  S
O1150      H1170   0.990       .  S
O1150      H1175   0.990       .  S
O1151      H1171   0.990       .  S
Zr1152     O1153   2.434   1_655  S
Zr1152     O1154   2.438       .  S
Zr1152     O1158   2.424   1_655  S
Zr1152     O1157   2.406   1_655  S
Zr1152     O1162   2.335   1_655  S
Zr1152     O1160   2.397       .  S
O1153      H1169   0.990   1_455  S
O1154      H1168   0.990       .  S
O1154      H1178   0.990       .  S
Zr1155     O1158   2.400   1_655  S
Zr1155     O1160   2.394       .  S
Zr1155     O1161   2.392   1_655  S
Zr1156     O1157   2.406       .  S
Zr1156     O1159   2.377       .  S
Zr1156     O1162   2.369       .  S
O1157      H1165   0.966       .  S
O1160      H1164   0.961       .  S
O1161      H1166   0.956       .  S
O1179     Zr1191   2.435       .  S
O1179      C1181   1.287   1_545  A
O1180     Zr1217   2.371       .  S
O1180      C1181   1.276       .  A
C1181      C1954   1.438       .  S
O1182     Zr1194   2.379   1_545  S
O1182      C1184   1.276       .  A
O1183     Zr1218   2.431       .  S
O1183      C1184   1.284       .  A
C1184      C1973   1.458       .  S
O1185     Zr1194   2.337       .  S
O1185      C1187   1.265       .  A
O1186     Zr1217   2.433       .  S
O1186      C1187   1.283       .  A
C1187      C2053   1.436       .  S
O1188     Zr1191   2.418       .  S
O1188      C1190   1.285       .  A
O1189     Zr1218   2.407       .  S
O1189      C1190   1.281       .  A
C1190      C1938   1.457       .  S
Zr1191     O1192   2.435       .  S
Zr1191     O1193   2.436       .  S
Zr1191     O1197   2.357   1_545  S
Zr1191     O1198   2.355       .  S
Zr1191     O1221   2.353       .  S
Zr1191     O1223   2.336       .  S
O1192      H1235   0.990       .  S
O1193      H1234   0.990       .  S
O1193      H1238   0.990       .  S
Zr1194     O1195   2.439       .  S
Zr1194     O1196   2.431       .  S
Zr1194     O1198   2.317   1_565  S
Zr1194     O1197   2.351       .  S
Zr1194     O1222   2.357       .  S
Zr1194     O1224   2.335   1_565  S
O1195      H1236   0.990   1_565  S
O1195      H1239   0.990   1_565  S
O1196      H1229   0.990       .  S
O1197     Zr1217   2.379       .  S
O1198     Zr1218   2.378       .  S
O1198      H1225   0.964       .  S
O1199     Zr1211   2.502       .  S
O1199      C1201   1.299       .  A
O1200     Zr1218   2.423       .  S
O1200      C1201   1.286       .  A
C1201      C1874   1.511       .  S
O1202     Zr1214   2.558       .  S
O1202      C1204   1.309       .  A
O1203     Zr1217   2.401       .  S
O1203      C1204   1.284       .  A
C1204      C1925   1.526       .  S
O1205     Zr1214   2.529   1_545  S
O1205      C1207   1.306       .  A
O1206     Zr1218   2.428       .  S
O1206      C1207   1.283       .  A
C1207      C1906   1.526       .  S
O1208     Zr1211   2.511       .  S
O1208      C1210   1.301   1_545  A
O1209     Zr1217   2.436       .  S
O1209      C1210   1.289       .  A
C1210      C1893   1.512       .  S
Zr1211     O1212   2.438       .  S
Zr1211     O1213   2.433       .  S
Zr1211     O1219   2.415       .  S
Zr1211     O1220   2.402   1_545  S
Zr1211     O1223   2.380       .  S
Zr1211     O1221   2.372       .  S
O1212      H1232   0.989       .  S
O1212      H1237   0.989       .  S
O1213      H1233   0.990       .  S
Zr1214     O1215   2.434       .  S
Zr1214     O1216   2.436       .  S
Zr1214     O1220   2.404       .  S
Zr1214     O1219   2.413   1_565  S
Zr1214     O1224   2.367   1_565  S
Zr1214     O1222   2.355       .  S
O1215      H1231   0.990       .  S
O1216      H1230   0.991       .  S
O1216      H1240   0.990       .  S
Zr1217     O1220   2.393       .  S
Zr1217     O1222   2.381       .  S
Zr1217     O1223   2.386   1_565  S
Zr1218     O1219   2.410       .  S
Zr1218     O1221   2.383       .  S
Zr1218     O1224   2.370       .  S
O1219      H1227   0.966       .  S
O1222      H1226   0.960       .  S
O1223      H1228   0.964       .  S
O1241     Zr1253   2.430       .  S
O1241      C1243   1.287       .  A
O1242     Zr1279   2.366       .  S
O1242      C1243   1.273       .  A
C1243      C2069   1.445       .  S
O1244     Zr1256   2.426       .  S
O1244      C1246   1.282       .  A
O1245     Zr1280   2.407       .  S
O1245      C1246   1.278       .  A
C1246      C1826   1.465       .  S
O1247     Zr1256   2.394       .  S
O1247      C1249   1.270       .  A
O1248     Zr1279   2.459       .  S
O1248      C1249   1.285   1_565  A
C1249      C1845   1.485       .  S
O1250     Zr1253   2.351   1_545  S
O1250      C1252   1.261       .  A
O1251     Zr1280   2.437       .  S
O1251      C1252   1.278       .  A
C1252      C1861   1.473       .  S
Zr1253     O1254   2.433       .  S
Zr1253     O1255   2.436       .  S
Zr1253     O1259   2.310   1_565  S
Zr1253     O1260   2.395   1_565  S
Zr1253     O1283   2.366   1_565  S
Zr1253     O1285   2.333       .  S
O1254      H1297   0.990       .  S
O1255      H1296   0.990       .  S
O1255      H1300   0.990       .  S
Zr1256     O1257   2.438       .  S
Zr1256     O1258   2.439       .  S
Zr1256     O1260   2.342       .  S
Zr1256     O1259   2.357       .  S
Zr1256     O1284   2.370       .  S
Zr1256     O1286   2.343       .  S
O1257      H1298   0.990       .  S
O1257      H1301   0.990       .  S
O1258      H1291   0.990       .  S
O1259     Zr1279   2.370   1_545  S
O1260     Zr1280   2.408       .  S
O1260      H1287   0.936       .  S
O1261     Zr1273   2.529   1_545  S
O1261      C1263   1.303       .  A
O1262     Zr1280   2.401       .  S
O1262      C1263   1.283       .  A
C1263      C1762   1.498       .  S
O1264     Zr1276   2.505       .  S
O1264      C1266   1.298       .  A
O1265     Zr1279   2.400       .  S
O1265      C1266   1.281   1_565  A
C1266      C1813   1.501       .  S
O1267     Zr1276   2.511       .  S
O1267      C1269   1.300       .  A
O1268     Zr1280   2.456       .  S
O1268      C1269   1.294       .  A
C1269      C1778   1.531       .  S
O1270     Zr1273   2.506       .  S
O1270      C1272   1.300       .  A
O1271     Zr1279   2.431       .  S
O1271      C1272   1.285       .  A
C1272      C1797   1.515       .  S
Zr1273     O1274   2.438   1_565  S
Zr1273     O1275   2.434       .  S
Zr1273     O1281   2.415   1_565  S
Zr1273     O1282   2.409   1_565  S
Zr1273     O1285   2.398       .  S
Zr1273     O1283   2.343   1_565  S
O1274      H1294   0.989       .  S
O1274      H1299   0.989       .  S
O1275      H1295   0.990       .  S
Zr1276     O1277   2.435       .  S
Zr1276     O1278   2.437       .  S
Zr1276     O1282   2.401       .  S
Zr1276     O1281   2.410       .  S
Zr1276     O1286   2.368       .  S
Zr1276     O1284   2.386       .  S
O1277      H1293   0.990       .  S
O1278      H1292   0.990       .  S
O1278      H1302   0.988       .  S
Zr1279     O1282   2.391   1_565  S
Zr1279     O1284   2.399   1_565  S
Zr1279     O1285   2.391       .  S
Zr1280     O1281   2.408       .  S
Zr1280     O1283   2.396       .  S
Zr1280     O1286   2.373       .  S
O1281      H1289   0.965       .  S
O1284      H1288   0.963       .  S
O1285      H1290   0.963       .  S
O1303     Zr1315   2.548       .  S
O1303      C1305   1.308       .  A
O1304     Zr1341   2.398       .  S
O1304      C1305   1.276       .  A
C1305      C1682   1.529       .  S
O1306     Zr1318   2.461   1_455  S
O1306      C1308   1.287       .  A
O1307     Zr1342   2.398       .  S
O1307      C1308   1.276       .  A
C1308      C1730   1.469       .  S
O1309     Zr1318   2.413       .  S
O1309      C1311   1.283       .  A
O1310     Zr1341   2.410       .  S
O1310      C1311   1.283       .  A
C1311      C1941   1.453       .  S
O1312     Zr1315   2.522       .  S
O1312      C1314   1.303   1_655  A
O1313     Zr1342   2.474       .  S
O1313      C1314   1.299       .  A
C1314      C1714   1.535       .  S
Zr1315     O1316   2.435       .  S
Zr1315     O1317   2.435       .  S
Zr1315     O1321   2.365       .  S
Zr1315     O1322   2.390   1_655  S
Zr1315     O1345   2.421   1_655  S
Zr1315     O1347   2.404       .  S
O1316      H1359   0.990       .  S
O1317      H1358   0.990       .  S
O1317      H1362   0.990       .  S
Zr1318     O1319   2.449       .  S
Zr1318     O1320   2.438       .  S
Zr1318     O1322   2.328   1_655  S
Zr1318     O1321   2.368       .  S
Zr1318     O1346   2.374       .  S
Zr1318     O1348   2.369   1_655  S
O1319      H1360   0.988       .  S
O1319      H1363   0.990       .  S
O1320      H1353   0.990       .  S
O1321     Zr1341   2.383       .  S
O1322     Zr1342   2.393       .  S
O1322      H1349   0.961       .  S
O1323     Zr1335   2.531       .  S
O1323      C1325   1.302       .  A
O1324     Zr1342   2.418       .  S
O1324      C1325   1.285       .  A
C1325      C1701   1.531       .  S
O1326     Zr1338   2.426       .  S
O1326      C1328   1.278   1_455  A
O1327     Zr1341   2.416       .  S
O1327      C1328   1.270       .  A
C1328      C1749   1.486       .  S
O1329     Zr1338   2.358       .  S
O1329      C1331   1.273       .  A
O1330     Zr1342   2.455       .  S
O1330      C1331   1.292       .  A
C1331      C1829   1.474       .  S
O1332     Zr1335   2.523       .  S
O1332      C1334   1.303   1_455  A
O1333     Zr1341   2.435       .  S
O1333      C1334   1.283       .  A
C1334      C1666   1.523       .  S
Zr1335     O1336   2.437       .  S
Zr1335     O1337   2.434       .  S
Zr1335     O1343   2.377       .  S
Zr1335     O1344   2.358       .  S
Zr1335     O1347   2.417   1_455  S
Zr1335     O1345   2.406       .  S
O1336      H1356   0.990       .  S
O1336      H1361   0.990       .  S
O1337      H1357   0.990       .  S
Zr1338     O1339   2.433       .  S
Zr1338     O1340   2.436       .  S
Zr1338     O1344   2.331       .  S
Zr1338     O1343   2.344       .  S
Zr1338     O1348   2.373       .  S
Zr1338     O1346   2.318   1_455  S
O1339      H1355   0.990       .  S
O1340      H1354   0.991       .  S
O1340      H1364   0.990       .  S
Zr1341     O1344   2.369   1_655  S
Zr1341     O1346   2.402       .  S
Zr1341     O1347   2.403       .  S
Zr1342     O1343   2.386       .  S
Zr1342     O1345   2.399       .  S
Zr1342     O1348   2.395       .  S
O1343      H1351   0.962       .  S
O1346      H1350   0.962       .  S
O1347      H1352   0.966       .  S
O1365     Zr1377   2.536       .  S
O1365      C1367   1.304       .  A
O1366     Zr1403   2.414       .  S
O1366      C1367   1.285   1_655  A
C1367      C1621   1.532       .  S
O1368     Zr1380   2.363   1_545  S
O1368      C1370   1.274       .  A
O1369     Zr1404   2.436       .  S
O1369      C1370   1.287       .  A
C1370      C1842   1.447       .  S
O1371     Zr1380   2.377       .  S
O1371      C1373   1.278   1_455  A
O1372     Zr1403   2.432       .  S
O1372      C1373   1.286       .  A
C1373      C2082   1.462       .  S
O1374     Zr1377   2.512       .  S
O1374      C1376   1.302   1_565  A
O1375     Zr1404   2.449       .  S
O1375      C1376   1.291       .  A
C1376      C1602   1.515       .  S
Zr1377     O1378   2.436       .  S
Zr1377     O1379   2.436       .  S
Zr1377     O1383   2.356       .  S
Zr1377     O1384   2.383   1_565  S
Zr1377     O1407   2.413   1_565  S
Zr1377     O1409   2.409   1_455  S
O1378      H1421   0.990       .  S
O1379      H1420   0.990       .  S
O1379      H1424   0.990       .  S
Zr1380     O1381   2.436       .  S
Zr1380     O1382   2.426       .  S
Zr1380     O1384   2.332   1_565  S
Zr1380     O1383   2.344       .  S
Zr1380     O1408   2.328   1_455  S
Zr1380     O1410   2.340   1_565  S
O1381      H1422   0.990       .  S
O1381      H1425   0.990       .  S
O1382      H1415   0.989   1_565  S
O1383     Zr1403   2.373   1_455  S
O1384     Zr1404   2.383       .  S
O1384      H1411   0.964   1_545  S
O1385     Zr1397   2.528       .  S
O1385      C1387   1.302   1_655  A
O1386     Zr1404   2.428       .  S
O1386      C1387   1.290       .  A
C1387      C1653   1.512       .  S
O1388     Zr1400   2.392       .  S
O1388      C1390   1.279   1_545  A
O1389     Zr1403   2.407       .  S
O1389      C1390   1.282       .  A
C1390      C1957   1.446       .  S
O1391     Zr1400   2.395       .  S
O1391      C1393   1.278   1_655  A
O1392     Zr1404   2.416       .  S
O1392      C1393   1.287       .  A
C1393      C1733   1.465       .  S
O1394     Zr1397   2.513       .  S
O1394      C1396   1.301   1_545  A
O1395     Zr1403   2.416       .  S
O1395      C1396   1.281       .  A
C1396      C1637   1.515       .  S
Zr1397     O1398   2.438       .  S
Zr1397     O1399   2.434       .  S
Zr1397     O1405   2.372       .  S
Zr1397     O1406   2.369       .  S
Zr1397     O1409   2.415   1_545  S
Zr1397     O1407   2.412   1_655  S
O1398      H1418   0.990       .  S
O1398      H1423   0.990       .  S
O1399      H1419   0.990   1_655  S
Zr1400     O1401   2.434       .  S
Zr1400     O1402   2.441       .  S
Zr1400     O1406   2.345       .  S
Zr1400     O1405   2.335       .  S
Zr1400     O1410   2.357   1_655  S
Zr1400     O1408   2.337   1_545  S
O1401      H1417   0.990       .  S
O1402      H1416   0.989       .  S
O1402      H1426   0.990       .  S
Zr1403     O1406   2.380   1_565  S
Zr1403     O1408   2.375       .  S
Zr1403     O1409   2.402       .  S
Zr1404     O1405   2.381   1_455  S
Zr1404     O1407   2.396       .  S
Zr1404     O1410   2.370       .  S
O1405      H1413   0.958       .  S
O1408      H1412   0.964       .  S
O1409      H1414   0.966       .  S
O1427     Zr1439   2.395   1_465  S
O1427      C1429   1.271       .  A
O1428     Zr1465   2.426       .  S
O1428      C1429   1.276       .  A
C1429      C2101   1.457       .  S
O1430     Zr1442   2.400       .  S
O1430      C1432   1.274       .  A
O1431     Zr1466   2.423       .  S
O1431      C1432   1.285   1_655  A
C1432      C1746   1.483       .  S
O1433     Zr1442   2.397       .  S
O1433      C1435   1.272       .  A
O1434     Zr1465   2.427       .  S
O1434      C1435   1.280   1_565  A
C1435      C1858   1.464       .  S
O1436     Zr1439   2.415       .  S
O1436      C1438   1.282       .  A
O1437     Zr1466   2.380       .  S
O1437      C1438   1.276       .  A
C1438      C1970   1.445       .  S
Zr1439     O1440   2.434   1_545  S
Zr1439     O1441   2.438   1_545  S
Zr1439     O1445   2.358   1_655  S
Zr1439     O1446   2.359   1_655  S
Zr1439     O1469   2.349       .  S
Zr1439     O1471   2.363   1_645  S
O1440      H1483   0.990   1_565  S
O1441      H1482   0.990       .  S
O1441      H1486   0.990       .  S
Zr1442     O1443   2.446       .  S
Zr1442     O1444   2.435       .  S
Zr1442     O1446   2.357       .  S
Zr1442     O1445   2.333       .  S
Zr1442     O1470   2.350       .  S
Zr1442     O1472   2.348       .  S
O1443      H1484   0.989       .  S
O1443      H1487   0.987       .  S
O1444      H1477   0.990       .  S
O1445     Zr1465   2.391   1_545  S
O1446     Zr1466   2.376   1_455  S
O1446      H1473   0.964   1_455  S
O1447     Zr1459   2.537       .  S
O1447      C1449   1.308       .  A
O1448     Zr1466   2.419       .  S
O1448      C1449   1.282       .  A
C1449      C1541   1.529       .  S
O1450     Zr1462   2.556       .  S
O1450      C1452   1.310       .  A
O1451     Zr1465   2.436   1_545  S
O1451      C1452   1.291       .  A
C1452      C1570   1.536       .  S
O1453     Zr1462   2.562       .  S
O1453      C1455   1.309       .  A
O1454     Zr1466   2.388       .  S
O1454      C1455   1.271   1_655  A
C1455      C1557   1.532       .  S
O1456     Zr1459   2.524   1_465  S
O1456      C1458   1.301       .  A
O1457     Zr1465   2.418       .  S
O1457      C1458   1.288       .  A
C1458      C1586   1.528       .  S
Zr1459     O1460   2.438       .  S
Zr1459     O1461   2.434   1_545  S
Zr1459     O1467   2.409   1_655  S
Zr1459     O1468   2.414   1_655  S
Zr1459     O1471   2.380   1_645  S
Zr1459     O1469   2.362       .  S
O1460      H1480   0.989   1_655  S
O1460      H1485   0.989       .  S
O1461      H1481   0.990       .  S
Zr1462     O1463   2.434       .  S
Zr1462     O1464   2.437       .  S
Zr1462     O1468   2.418       .  S
Zr1462     O1467   2.410       .  S
Zr1462     O1472   2.360       .  S
Zr1462     O1470   2.362       .  S
O1463      H1479   0.990       .  S
O1464      H1478   0.990       .  S
O1464      H1488   0.990       .  S
Zr1465     O1468   2.402   1_565  S
Zr1465     O1470   2.397   1_565  S
Zr1465     O1471   2.414       .  S
Zr1466     O1467   2.399   1_655  S
Zr1466     O1469   2.372       .  S
Zr1466     O1472   2.374   1_655  S
O1467      H1475   0.966   1_455  S
O1470      H1474   0.958       .  S
O1471      H1476   0.964       .  S
C1489      C1490   1.400       .  D
C1489      C2802   1.539       .  S
C1489      C2869   1.530       .  S
C1490      C1650   1.539       .  S
C1490      C1717   1.547       .  S
C1491      C1492   1.413   1_545  D
C1491      C2162   1.555       .  S
C1491      C2293   1.537   1_545  S
C1492      C1634   1.528       .  S
C1492      C1890   1.580       .  S
C1493      C1494   1.405   1_455  D
C1493      C1618   1.552       .  S
C1493      C2005   1.580       .  S
C1494      C2741   1.562       .  S
C1494      C2853   1.507       .  S
C1495      C1496   1.389       .  D
C1495      C2226   1.519       .  S
C1495      C2277   1.539       .  S
C1496      C1605   1.557       .  S
C1496      C1810   1.537       .  S
C1497      C1498   1.394       .  D
C1497      C3314   1.559       .  S
C1497      C3749   1.557       .  S
C1498      C1698   1.531       .  S
C1498      C1781   1.534       .  S
C1499      C1500   1.396       .  D
C1499      C3445   1.550       .  S
C1499      C3765   1.542       .  S
C1500      C1685   1.535       .  S
C1500      C1877   1.552       .  S
C1501      C1502   1.396       .  D
C1501      C3301   1.548       .  S
C1501      C3525   1.541       .  S
C1502      C1794   1.529       .  S
C1502      C1989   1.545       .  S
C1503      C1504   1.399       .  D
C1503      C2213   1.547       .  S
C1503      C2466   1.529       .  S
C1504      C1573   1.533       .  S
C1504      C1765   1.567       .  S
C1505      C1506   1.404       .  D
C1505      C2789   1.558       .  S
C1505      C2965   1.541       .  S
C1506      C2197   1.551       .  S
C1506      C2357   1.546       .  S
C1507      C1508   1.396   1_554  D
C1507      C2709   1.559       .  S
C1507      C2946   1.551       .  S
C1508      C2181   1.538       .  S
C1508      C2565   1.551       .  S
C1509      C1510   1.403       .  D
C1509      C3538   1.521       .  S
C1509      C3653   1.538       .  S
C1510      C2261   1.581       .  S
C1510      C2597   1.551       .  S
C1511      C1512   1.400       .  D
C1511      C3637   1.545       .  S
C1511      C3733   1.536       .  S
C1512      C2242   1.539       .  S
C1512      C2389   1.536       .  S
C1513      C1514   1.390       .  D
C1513      C3378   1.544       .  S
C1513      C3714   1.539       .  S
C1514      C2373   1.528       .  S
C1514      C2482   1.530       .  S
C1515      C1516   1.402   1_655  D
C1515      C2770   1.543       .  S
C1515      C3042   1.537       .  S
C1516      C1554   1.548       .  S
C1516      C1669   1.540       .  S
C1517      C1518   1.406   1_556  D
C1517      C2757   1.554       .  S
C1517      C3141   1.525       .  S
C1518      C2117   1.529       .  S
C1518      C2338   1.567       .  S
C1519      C1520   1.396       .  D
C1519      C3285   1.533       .  S
C1519      C3621   1.541       .  S
C1520      C2837   1.534       .  S
C1520      C2933   1.546       .  S
C1521      C1522   1.399       .  D
C1521      C3458   1.534       .  S
C1521      C3602   1.550       .  S
C1522      C2821   1.538       .  S
C1522      C3173   1.533       .  S
C1523      C1524   1.391       .  D
C1523      C3269   1.531       .  S
C1523      C3365   1.533       .  S
C1524      C2917   1.525       .  S
C1524      C3026   1.526       .  S
C1525      C1526   1.402       .  D
C1525      C2722   1.552       .  S
C1525      C3061   1.526       .  S
C1526      C1589   1.531       .  S
C1526      C2021   1.554       .  S
C1527      C1528   1.396       .  D
C1527      C2149   1.546       .  S
C1527      C2450   1.547       .  S
C1528      C1538   1.551       .  S
C1528      C1909   1.546       .  S
C1529      C1530   1.390       .  D
C1529      C2693   1.549       .  S
C1529      C3154   1.551       .  S
C1530      C2133   1.540       .  S
C1530      C2581   1.539       .  S
C1531      C1532   1.386       .  D
C1531      C3349   1.543       .  S
C1531      C3429   1.542       .  S
C1532      C3074   1.548       .  S
C1532      C3186   1.533       .  S
C1533      C1534   1.404       .  D
C1533      C3410   1.547       .  S
C1533      C3490   1.544       .  S
C1534      C1922   1.552       .  S
C1534      C2037   1.577       .  S
C1535      C1536   1.403       .  D
C1535      C3333   1.542       .  S
C1535      C3509   1.542       .  S
C1536      C2498   1.547       .  S
C1536      C2613   1.537       .  S
C1537      C1538   1.410       .  A
C1537      C1542   1.421       .  A
C1537      H1544   1.074       .  S
C1538      C1539   1.439       .  A
C1539      C1540   1.418       .  A
C1539      C1546   1.509   1_545  S
C1540      C1541   1.403       .  A
C1540      H1545   1.084   1_545  S
C1541      C1542   1.433       .  A
C1542      C1543   1.524       .  S
C1543      F1547   1.385       .  S
C1543      F1548   1.374       .  S
C1543      F1549   1.383       .  S
C1546      F1550   1.383       .  S
C1546      F1551   1.359       .  S
C1546      F1552   1.385       .  S
C1553      C1554   1.402   1_655  A
C1553      C1558   1.418       .  A
C1553      H1560   1.075       .  S
C1554      C1555   1.434       .  A
C1555      C1556   1.426       .  A
C1555      C1562   1.512       .  S
C1556      C1557   1.407       .  A
C1556      H1561   1.082       .  S
C1557      C1558   1.436   1_455  A
C1558      C1559   1.523       .  S
C1559      F1563   1.385       .  S
C1559      F1564   1.384       .  S
C1559      F1565   1.383       .  S
C1562      F1566   1.377       .  S
C1562      F1567   1.379       .  S
C1562      F1568   1.385       .  S
C1569      C1570   1.421       .  A
C1569      C1574   1.422       .  A
C1569      H1576   1.084   1_545  S
C1570      C1571   1.429       .  A
C1571      C1572   1.422       .  A
C1571      C1578   1.517       .  S
C1572      C1573   1.410       .  A
C1572      H1577   1.081       .  S
C1573      C1574   1.422       .  A
C1574      C1575   1.520   1_545  S
C1575      F1579   1.381       .  S
C1575      F1580   1.378       .  S
C1575      F1581   1.377       .  S
C1578      F1582   1.383       .  S
C1578      F1583   1.383       .  S
C1578      F1584   1.385       .  S
C1585      C1586   1.414       .  A
C1585      C1590   1.410       .  A
C1585      H1592   1.083       .  S
C1586      C1587   1.430       .  A
C1587      C1588   1.425       .  A
C1587      C1594   1.516   1_455  S
C1588      C1589   1.410       .  A
C1588      H1593   1.082   1_455  S
C1589      C1590   1.423       .  A
C1590      C1591   1.517       .  S
C1591      F1595   1.383       .  S
C1591      F1596   1.374       .  S
C1591      F1597   1.384       .  S
C1594      F1598   1.383       .  S
C1594      F1599   1.383       .  S
C1594      F1600   1.385       .  S
C1601      C1602   1.402   1_565  A
C1601      C1606   1.419       .  A
C1601      H1608   1.084       .  S
C1602      C1603   1.417       .  A
C1603      C1604   1.422       .  A
C1603      C1610   1.517       .  S
C1604      C1605   1.419       .  A
C1604      H1609   1.078       .  S
C1605      C1606   1.442   1_545  A
C1606      C1607   1.519       .  S
C1607      F1611   1.386       .  S
C1607      F1612   1.364       .  S
C1607      F1613   1.381       .  S
C1610      F1614   1.382       .  S
C1610      F1615   1.383       .  S
C1610      F1616   1.384       .  S
C1617      C1618   1.419       .  A
C1617      C1622   1.428       .  A
C1617      H1624   1.074       .  S
C1618      C1619   1.427   1_455  A
C1619      C1620   1.413       .  A
C1619      C1626   1.511       .  S
C1620      C1621   1.410   1_655  A
C1620      H1625   1.083       .  S
C1621      C1622   1.427       .  A
C1622      C1623   1.518       .  S
C1623      F1627   1.385       .  S
C1623      F1628   1.383       .  S
C1623      F1629   1.383       .  S
C1626      F1630   1.373       .  S
C1626      F1631   1.377       .  S
C1626      F1632   1.385       .  S
C1633      C1634   1.409       .  A
C1633      C1638   1.412       .  A
C1633      H1640   1.076       .  S
C1634      C1635   1.426   1_565  A
C1635      C1636   1.417       .  A
C1635      C1642   1.517       .  S
C1636      C1637   1.410   1_545  A
C1636      H1641   1.084       .  S
C1637      C1638   1.428       .  A
C1638      C1639   1.523       .  S
C1639      F1643   1.384       .  S
C1639      F1644   1.383       .  S
C1639      F1645   1.383       .  S
C1642      F1646   1.382       .  S
C1642      F1647   1.381       .  S
C1642      F1648   1.382       .  S
C1649      C1650   1.412   1_655  A
C1649      C1654   1.424       .  A
C1649      H1656   1.083       .  S
C1650      C1651   1.437       .  A
C1651      C1652   1.411       .  A
C1651      C1658   1.510       .  S
C1652      C1653   1.398       .  A
C1652      H1657   1.085       .  S
C1653      C1654   1.424   1_455  A
C1654      C1655   1.516       .  S
C1655      F1659   1.385       .  S
C1655      F1660   1.375       .  S
C1655      F1661   1.382       .  S
C1658      F1662   1.359       .  S
C1658      F1663   1.384       .  S
C1658      F1664   1.384       .  S
C1665      C1666   1.408   1_455  A
C1665      C1670   1.422       .  A
C1665      H1672   1.084       .  S
C1666      C1667   1.425       .  A
C1667      C1668   1.423       .  A
C1667      C1674   1.530       .  S
C1668      C1669   1.412   1_655  A
C1668      H1673   1.082       .  S
C1669      C1670   1.435       .  A
C1670      C1671   1.514       .  S
C1671      F1675   1.384       .  S
C1671      F1676   1.370       .  S
C1671      F1677   1.384       .  S
C1674      F1678   1.377       .  S
C1674      F1679   1.383       .  S
C1674      F1680   1.385       .  S
C1681      C1682   1.406       .  A
C1681      C1686   1.421       .  A
C1681      H1688   1.084       .  S
C1682      C1683   1.437       .  A
C1683      C1684   1.418       .  A
C1683      C1690   1.525       .  S
C1684      C1685   1.402       .  A
C1684      H1689   1.081       .  S
C1685      C1686   1.434       .  A
C1686      C1687   1.511       .  S
C1687      F1691   1.384       .  S
C1687      F1692   1.368       .  S
C1687      F1693   1.383       .  S
C1690      F1694   1.384       .  S
C1690      F1695   1.378       .  S
C1690      F1696   1.385       .  S
C1697      C1698   1.409       .  A
C1697      C1702   1.418       .  A
C1697      H1704   1.078       .  S
C1698      C1699   1.423       .  A
C1699      C1700   1.421       .  A
C1699      C1706   1.527       .  S
C1700      C1701   1.419       .  A
C1700      H1705   1.080       .  S
C1701      C1702   1.428       .  A
C1702      C1703   1.519       .  S
C1703      F1707   1.384       .  S
C1703      F1708   1.383       .  S
C1703      F1709   1.383       .  S
C1706      F1710   1.378       .  S
C1706      F1711   1.368       .  S
C1706      F1712   1.383       .  S
C1713      C1714   1.414       .  A
C1713      C1718   1.423       .  A
C1713      H1720   1.081       .  S
C1714      C1715   1.427       .  A
C1715      C1716   1.425       .  A
C1715      C1722   1.516   1_455  S
C1716      C1717   1.414       .  A
C1716      H1721   1.080   1_455  S
C1717      C1718   1.425       .  A
C1718      C1719   1.518       .  S
C1719      F1723   1.378       .  S
C1719      F1724   1.371       .  S
C1719      F1725   1.381       .  S
C1722      F1726   1.384       .  S
C1722      F1727   1.380       .  S
C1722      F1728   1.385       .  S
C1729      C1730   1.397       .  A
C1729      C1734   1.391       .  A
C1729      H1736   1.079   1_455  S
C1730      C1731   1.420       .  A
C1731      C1732   1.397       .  A
C1731      C1738   1.508       .  S
C1732      C1733   1.399       .  A
C1732      H1737   1.084       .  S
C1733      C1734   1.418       .  A
C1734      C1735   1.519   1_455  S
C1735      F1739   1.385       .  S
C1735      F1740   1.381       .  S
C1735      F1741   1.378       .  S
C1738      F1742   1.377       .  S
C1738      F1743   1.386       .  S
C1738      F1744   1.379       .  S
C1745      C1746   1.404   1_655  A
C1745      C1750   1.404       .  A
C1745      H1752   1.081       .  S
C1746      C1747   1.423       .  A
C1747      C1748   1.387       .  A
C1747      C1754   1.523       .  S
C1748      C1749   1.402   1_455  A
C1748      H1753   1.074       .  S
C1749      C1750   1.425       .  A
C1750      C1751   1.519       .  S
C1751      F1755   1.384       .  S
C1751      F1756   1.380       .  S
C1751      F1757   1.367       .  S
C1754      F1758   1.385       .  S
C1754      F1759   1.379       .  S
C1754      F1760   1.382       .  S
C1761      C1762   1.407       .  A
C1761      C1766   1.417       .  A
C1761      H1768   1.069       .  S
C1762      C1763   1.405       .  A
C1763      C1764   1.412       .  A
C1763      C1770   1.520       .  S
C1764      C1765   1.421       .  A
C1764      H1769   1.051       .  S
C1765      C1766   1.418       .  A
C1766      C1767   1.522       .  S
C1767      F1771   1.377       .  S
C1767      F1772   1.379       .  S
C1767      F1773   1.378       .  S
C1770      F1774   1.382       .  S
C1770      F1775   1.383       .  S
C1770      F1776   1.384       .  S
C1777      C1778   1.413       .  A
C1777      C1782   1.421       .  A
C1777      H1784   1.081       .  S
C1778      C1779   1.427       .  A
C1779      C1780   1.419       .  A
C1779      C1786   1.515       .  S
C1780      C1781   1.409       .  A
C1780      H1785   1.075       .  S
C1781      C1782   1.422       .  A
C1782      C1783   1.516       .  S
C1783      F1787   1.382       .  S
C1783      F1788   1.375       .  S
C1783      F1789   1.370       .  S
C1786      F1790   1.381       .  S
C1786      F1791   1.383       .  S
C1786      F1792   1.385       .  S
C1793      C1794   1.407       .  A
C1793      C1798   1.417       .  A
C1793      H1800   1.078       .  S
C1794      C1795   1.430       .  A
C1795      C1796   1.416       .  A
C1795      C1802   1.520       .  S
C1796      C1797   1.409       .  A
C1796      H1801   1.084       .  S
C1797      C1798   1.425       .  A
C1798      C1799   1.524       .  S
C1799      F1803   1.383       .  S
C1799      F1804   1.383       .  S
C1799      F1805   1.377       .  S
C1802      F1806   1.383       .  S
C1802      F1807   1.378       .  S
C1802      F1808   1.384       .  S
C1809      C1810   1.412   1_565  A
C1809      C1814   1.405       .  A
C1809      H1816   1.080       .  S
C1810      C1811   1.439       .  A
C1811      C1812   1.419       .  A
C1811      C1818   1.523       .  S
C1812      C1813   1.407       .  A
C1812      H1817   1.085       .  S
C1813      C1814   1.418   1_545  A
C1814      C1815   1.517       .  S
C1815      F1819   1.383       .  S
C1815      F1820   1.381       .  S
C1815      F1821   1.383       .  S
C1818      F1822   1.364       .  S
C1818      F1823   1.381       .  S
C1818      F1824   1.383       .  S
C1825      C1826   1.405       .  A
C1825      C1830   1.395       .  A
C1825      H1832   1.085       .  S
C1826      C1827   1.414       .  A
C1827      C1828   1.398       .  A
C1827      C1834   1.516       .  S
C1828      C1829   1.409       .  A
C1828      H1833   1.084       .  S
C1829      C1830   1.404       .  A
C1830      C1831   1.504       .  S
C1831      F1835   1.385       .  S
C1831      F1836   1.377       .  S
C1831      F1837   1.381       .  S
C1834      F1838   1.383       .  S
C1834      F1839   1.379       .  S
C1834      F1840   1.382       .  S
C1841      C1842   1.391       .  A
C1841      C1846   1.403       .  A
C1841      H1848   1.085       .  S
C1842      C1843   1.412       .  A
C1843      C1844   1.395       .  A
C1843      C1850   1.518       .  S
C1844      C1845   1.407       .  A
C1844      H1849   1.084       .  S
C1845      C1846   1.413       .  A
C1846      C1847   1.495       .  S
C1847      F1851   1.371       .  S
C1847      F1852   1.382   1_545  S
C1847      F1853   1.372       .  S
C1850      F1854   1.383       .  S
C1850      F1855   1.383       .  S
C1850      F1856   1.383       .  S
C1857      C1858   1.401       .  A
C1857      C1862   1.386       .  A
C1857      H1864   1.077       .  S
C1858      C1859   1.405   1_545  A
C1859      C1860   1.403       .  A
C1859      C1866   1.516       .  S
C1860      C1861   1.416   1_565  A
C1860      H1865   1.082       .  S
C1861      C1862   1.416       .  A
C1862      C1863   1.523       .  S
C1863      F1867   1.385       .  S
C1863      F1868   1.378       .  S
C1863      F1869   1.371       .  S
C1866      F1870   1.382       .  S
C1866      F1871   1.380       .  S
C1866      F1872   1.384       .  S
C1873      C1874   1.406       .  A
C1873      C1878   1.422       .  A
C1873      H1880   1.082       .  S
C1874      C1875   1.418       .  A
C1875      C1876   1.416       .  A
C1875      C1882   1.519       .  S
C1876      C1877   1.415       .  A
C1876      H1881   1.071       .  S
C1877      C1878   1.433       .  A
C1878      C1879   1.511       .  S
C1879      F1883   1.385       .  S
C1879      F1884   1.378       .  S
C1879      F1885   1.378       .  S
C1882      F1886   1.382       .  S
C1882      F1887   1.384       .  S
C1882      F1888   1.378       .  S
C1889      C1890   1.422   1_545  A
C1889      C1894   1.417   1_545  A
C1889      H1896   1.059       .  S
C1890      C1891   1.454       .  A
C1891      C1892   1.425       .  A
C1891      C1898   1.520       .  S
C1892      C1893   1.401       .  A
C1892      H1897   1.081       .  S
C1893      C1894   1.401       .  A
C1894      C1895   1.514   1_565  S
C1895      F1899   1.380       .  S
C1895      F1900   1.379       .  S
C1895      F1901   1.386   1_545  S
C1898      F1902   1.374       .  S
C1898      F1903   1.378       .  S
C1898      F1904   1.386       .  S
C1905      C1906   1.406       .  A
C1905      C1910   1.416   1_545  A
C1905      H1912   1.084   1_545  S
C1906      C1907   1.431       .  A
C1907      C1908   1.422       .  A
C1907      C1914   1.524       .  S
C1908      C1909   1.413       .  A
C1908      H1913   1.077       .  S
C1909      C1910   1.432   1_545  A
C1910      C1911   1.511       .  S
C1911      F1915   1.384       .  S
C1911      F1916   1.381       .  S
C1911      F1917   1.368       .  S
C1914      F1918   1.383       .  S
C1914      F1919   1.378       .  S
C1914      F1920   1.385       .  S
C1921      C1922   1.417       .  A
C1921      C1926   1.422       .  A
C1921      H1928   1.067       .  S
C1922      C1923   1.433       .  A
C1923      C1924   1.421       .  A
C1923      C1930   1.520       .  S
C1924      C1925   1.414       .  A
C1924      H1929   1.084       .  S
C1925      C1926   1.420       .  A
C1926      C1927   1.518       .  S
C1927      F1931   1.384       .  S
C1927      F1932   1.383       .  S
C1927      F1933   1.383       .  S
C1930      F1934   1.379       .  S
C1930      F1935   1.376       .  S
C1930      F1936   1.384       .  S
C1937      C1938   1.398       .  A
C1937      C1942   1.389       .  A
C1937      H1944   1.085       .  S
C1938      C1939   1.407       .  A
C1939      C1940   1.396       .  A
C1939      C1946   1.500       .  S
C1940      C1941   1.398       .  A
C1940      H1945   1.080       .  S
C1941      C1942   1.416       .  A
C1942      C1943   1.519       .  S
C1943      F1947   1.384       .  S
C1943      F1948   1.382       .  S
C1943      F1949   1.379       .  S
C1946      F1950   1.382       .  S
C1946      F1951   1.372       .  S
C1946      F1952   1.381       .  S
C1953      C1954   1.390   1_545  A
C1953      C1958   1.378       .  A
C1953      H1960   1.087       .  S
C1954      C1955   1.413       .  A
C1955      C1956   1.402       .  A
C1955      C1962   1.514       .  S
C1956      C1957   1.405       .  A
C1956      H1961   1.085       .  S
C1957      C1958   1.413   1_565  A
C1958      C1959   1.510       .  S
C1959      F1963   1.383       .  S
C1959      F1964   1.375       .  S
C1959      F1965   1.383       .  S
C1962      F1966   1.383       .  S
C1962      F1967   1.380       .  S
C1962      F1968   1.384       .  S
C1969      C1970   1.386       .  A
C1969      C1974   1.384       .  A
C1969      H1976   1.087       .  S
C1970      C1971   1.406       .  A
C1971      C1972   1.405       .  A
C1971      C1978   1.511       .  S
C1972      C1973   1.407       .  A
C1972      H1977   1.084       .  S
C1973      C1974   1.422       .  A
C1974      C1975   1.512       .  S
C1975      F1979   1.383   1_545  S
C1975      F1980   1.373       .  S
C1975      F1981   1.380   1_545  S
C1978      F1982   1.383       .  S
C1978      F1983   1.375       .  S
C1978      F1984   1.382       .  S
C1985      C1986   1.398       .  A
C1985      C1990   1.415       .  A
C1985      H1992   1.085       .  S
C1986      C1987   1.420       .  A
C1987      C1988   1.416       .  A
C1987      C1994   1.516       .  S
C1988      C1989   1.411       .  A
C1988      H1993   1.074       .  S
C1989      C1990   1.437       .  A
C1990      C1991   1.508       .  S
C1991      F1995   1.382       .  S
C1991      F1996   1.362       .  S
C1991      F1997   1.385       .  S
C1994      F1998   1.382       .  S
C1994      F1999   1.381       .  S
C1994      F2000   1.385       .  S
C2001      C2002   1.409   1_655  A
C2001      C2006   1.409       .  A
C2001      H2008   1.084       .  S
C2002      C2003   1.445       .  A
C2003      C2004   1.427       .  A
C2003      C2010   1.524       .  S
C2004      C2005   1.411       .  A
C2004      H2009   1.073       .  S
C2005      C2006   1.449   1_455  A
C2006      C2007   1.547       .  S
C2007      F2011   1.394   1_655  S
C2007      F2012   1.371   1_655  S
C2007      F2013   1.368       .  S
C2010      F2014   1.383       .  S
C2010      F2015   1.380       .  S
C2010      F2016   1.385       .  S
C2017      C2018   1.403       .  A
C2017      C2022   1.422       .  A
C2017      H2024   1.084       .  S
C2018      C2019   1.424       .  A
C2019      C2020   1.411       .  A
C2019      C2026   1.507       .  S
C2020      C2021   1.410       .  A
C2020      H2025   1.079       .  S
C2021      C2022   1.429       .  A
C2022      C2023   1.513       .  S
C2023      F2027   1.385       .  S
C2023      F2028   1.379       .  S
C2023      F2029   1.375       .  S
C2026      F2030   1.356       .  S
C2026      F2031   1.385       .  S
C2026      F2032   1.383       .  S
C2033      C2034   1.409       .  A
C2033      C2038   1.434       .  A
C2033      H2040   1.081       .  S
C2034      C2035   1.422       .  A
C2035      C2036   1.423       .  A
C2035      C2042   1.515       .  S
C2036      C2037   1.416       .  A
C2036      H2041   1.072       .  S
C2037      C2038   1.446       .  A
C2038      C2039   1.517       .  S
C2039      F2043   1.385       .  S
C2039      F2044   1.376       .  S
C2039      F2045   1.378       .  S
C2042      F2046   1.384       .  S
C2042      F2047   1.380       .  S
C2042      F2048   1.381       .  S
C2049      C2050   1.397       .  A
C2049      C2054   1.388       .  A
C2049      H2056   1.083       .  S
C2050      C2051   1.407       .  A
C2051      C2052   1.380       .  A
C2051      C2058   1.508       .  S
C2052      C2053   1.397       .  A
C2052      H2057   1.079       .  S
C2053      C2054   1.393       .  A
C2054      C2055   1.492       .  S
C2055      F2059   1.380       .  S
C2055      F2060   1.380       .  S
C2055      F2061   1.370       .  S
C2058      F2062   1.381       .  S
C2058      F2063   1.378       .  S
C2058      F2064   1.385       .  S
C2065      C2066   1.398       .  A
C2065      C2070   1.395       .  A
C2065      H2072   1.084       .  S
C2066      C2067   1.414       .  A
C2067      C2068   1.383       .  A
C2067      C2074   1.512       .  S
C2068      C2069   1.393       .  A
C2068      H2073   1.087       .  S
C2069      C2070   1.408       .  A
C2070      C2071   1.503       .  S
C2071      F2075   1.384       .  S
C2071      F2076   1.382       .  S
C2071      F2077   1.377       .  S
C2074      F2078   1.383       .  S
C2074      F2079   1.376       .  S
C2074      F2080   1.383       .  S
C2081      C2082   1.390       .  A
C2081      C2086   1.406       .  A
C2081      H2088   1.084       .  S
C2082      C2083   1.412       .  A
C2083      C2084   1.383   1_655  A
C2083      C2090   1.510   1_655  S
C2084      C2085   1.391   1_455  A
C2084      H2089   1.077       .  S
C2085      C2086   1.426       .  A
C2086      C2087   1.499       .  S
C2087      F2091   1.385       .  S
C2087      F2092   1.378       .  S
C2087      F2093   1.366       .  S
C2090      F2094   1.383   1_455  S
C2090      F2095   1.379       .  S
C2090      F2096   1.379       .  S
C2097      C2098   1.405       .  A
C2097      C2102   1.387       .  A
C2097      H2104   1.085       .  S
C2098      C2099   1.420   1_455  A
C2099      C2100   1.411   1_655  A
C2099      C2106   1.519       .  S
C2100      C2101   1.405       .  A
C2100      H2105   1.084       .  S
C2101      C2102   1.413       .  A
C2102      C2103   1.524       .  S
C2103      F2107   1.384       .  S
C2103      F2108   1.380       .  S
C2103      F2109   1.382       .  S
C2106      F2110   1.385       .  S
C2106      F2111   1.376       .  S
C2106      F2112   1.381       .  S
C2113      C2114   1.410   1_554  A
C2113      C2118   1.420       .  A
C2113      H2120   1.084       .  S
C2114      C2115   1.438       .  A
C2115      C2116   1.416       .  A
C2115      C2122   1.525       .  S
C2116      C2117   1.401   1_556  A
C2116      H2121   1.082       .  S
C2117      C2118   1.428       .  A
C2118      C2119   1.517       .  S
C2119      F2123   1.384       .  S
C2119      F2124   1.380       .  S
C2119      F2125   1.383       .  S
C2122      F2126   1.382       .  S
C2122      F2127   1.384       .  S
C2122      F2128   1.385       .  S
C2129      C2130   1.422   1_554  A
C2129      C2134   1.423       .  A
C2129      H2136   1.081       .  S
C2130      C2131   1.422       .  A
C2131      C2132   1.425       .  A
C2131      C2138   1.515       .  S
C2132      C2133   1.417       .  A
C2132      H2137   1.077       .  S
C2133      C2134   1.422   1_556  A
C2134      C2135   1.527       .  S
C2135      F2139   1.384       .  S
C2135      F2140   1.378       .  S
C2135      F2141   1.378       .  S
C2138      F2142   1.384       .  S
C2138      F2143   1.381       .  S
C2138      F2144   1.385       .  S
C2145      C2146   1.407       .  A
C2145      C2150   1.428       .  A
C2145      H2152   1.084       .  S
C2146      C2147   1.421       .  A
C2147      C2148   1.409       .  A
C2147      C2154   1.518   1_545  S
C2148      C2149   1.403       .  A
C2148      H2153   1.061   1_545  S
C2149      C2150   1.438       .  A
C2150      C2151   1.512       .  S
C2151      F2155   1.384       .  S
C2151      F2156   1.373       .  S
C2151      F2157   1.382       .  S
C2154      F2158   1.374       .  S
C2154      F2159   1.380       .  S
C2154      F2160   1.385       .  S
C2161      C2162   1.414   1_565  A
C2161      C2166   1.419       .  A
C2161      H2168   1.077       .  S
C2162      C2163   1.438       .  A
C2163      C2164   1.423       .  A
C2163      C2170   1.520       .  S
C2164      C2165   1.406       .  A
C2164      H2169   1.082       .  S
C2165      C2166   1.419   1_545  A
C2166      C2167   1.520       .  S
C2167      F2171   1.382       .  S
C2167      F2172   1.384       .  S
C2167      F2173   1.382       .  S
C2170      F2174   1.385       .  S
C2170      F2175   1.372       .  S
C2170      F2176   1.381       .  S
C2177      C2178   1.410       .  A
C2177      C2182   1.421       .  A
C2177      H2184   1.084       .  S
C2178      C2179   1.423   1_556  A
C2179      C2180   1.417       .  A
C2179      C2186   1.516       .  S
C2180      C2181   1.409   1_554  A
C2180      H2185   1.075       .  S
C2181      C2182   1.433       .  A
C2182      C2183   1.517       .  S
C2183      F2187   1.382       .  S
C2183      F2188   1.383       .  S
C2183      F2189   1.373       .  S
C2186      F2190   1.384       .  S
C2186      F2191   1.383       .  S
C2186      F2192   1.385       .  S
C2193      C2194   1.406       .  A
C2193      C2198   1.416       .  A
C2193      H2200   1.085       .  S
C2194      C2195   1.426       .  A
C2195      C2196   1.432       .  A
C2195      C2202   1.520   1_556  S
C2196      C2197   1.416       .  A
C2196      H2201   1.079   1_556  S
C2197      C2198   1.434       .  A
C2198      C2199   1.511       .  S
C2199      F2203   1.384       .  S
C2199      F2204   1.363       .  S
C2199      F2205   1.384       .  S
C2202      F2206   1.382       .  S
C2202      F2207   1.382       .  S
C2202      F2208   1.384       .  S
C2209      C2210   1.405   1_565  A
C2209      C2214   1.421       .  A
C2209      H2216   1.084       .  S
C2210      C2211   1.435       .  A
C2211      C2212   1.419       .  A
C2211      C2218   1.523       .  S
C2212      C2213   1.406       .  A
C2212      H2217   1.077       .  S
C2213      C2214   1.436   1_545  A
C2214      C2215   1.512       .  S
C2215      F2219   1.383       .  S
C2215      F2220   1.364       .  S
C2215      F2221   1.384       .  S
C2218      F2222   1.383       .  S
C2218      F2223   1.383       .  S
C2218      F2224   1.385       .  S
C2225      C2226   1.403       .  A
C2225      C2230   1.414       .  A
C2225      H2232   1.078       .  S
C2226      C2227   1.426   1_545  A
C2227      C2228   1.415       .  A
C2227      C2234   1.515       .  S
C2228      C2229   1.409   1_565  A
C2228      H2233   1.084       .  S
C2229      C2230   1.429       .  A
C2230      C2231   1.519       .  S
C2231      F2235   1.385       .  S
C2231      F2236   1.382       .  S
C2231      F2237   1.380       .  S
C2234      F2238   1.384       .  S
C2234      F2239   1.376       .  S
C2234      F2240   1.384       .  S
C2241      C2242   1.413       .  A
C2241      C2246   1.428       .  A
C2241      H2248   1.082       .  S
C2242      C2243   1.430       .  A
C2243      C2244   1.405       .  A
C2243      C2250   1.506       .  S
C2244      C2245   1.402       .  A
C2244      H2249   1.085       .  S
C2245      C2246   1.427       .  A
C2246      C2247   1.517       .  S
C2247      F2251   1.384       .  S
C2247      F2252   1.381       .  S
C2247      F2253   1.383       .  S
C2250      F2254   1.385       .  S
C2250      F2255   1.361       .  S
C2250      F2256   1.383       .  S
C2257      C2258   1.401       .  A
C2257      C2262   1.412       .  A
C2257      H2264   1.066       .  S
C2258      C2259   1.409       .  A
C2259      C2260   1.433       .  A
C2259      C2266   1.512       .  S
C2260      C2261   1.433       .  A
C2260      H2265   1.065       .  S
C2261      C2262   1.415       .  A
C2262      C2263   1.513       .  S
C2263      F2267   1.382       .  S
C2263      F2268   1.378       .  S
C2263      F2269   1.369       .  S
C2266      F2270   1.382       .  S
C2266      F2271   1.383       .  S
C2266      F2272   1.377       .  S
C2273      C2274   1.408       .  A
C2273      C2278   1.416       .  A
C2273      H2280   1.084       .  S
C2274      C2275   1.426   1_545  A
C2275      C2276   1.416       .  A
C2275      C2282   1.521       .  S
C2276      C2277   1.409   1_565  A
C2276      H2281   1.069       .  S
C2277      C2278   1.432       .  A
C2278      C2279   1.518       .  S
C2279      F2283   1.380       .  S
C2279      F2284   1.375       .  S
C2279      F2285   1.380       .  S
C2282      F2286   1.383       .  S
C2282      F2287   1.382       .  S
C2282      F2288   1.385       .  S
C2289      C2290   1.417       .  A
C2289      C2294   1.425       .  A
C2289      H2296   1.082       .  S
C2290      C2291   1.427   1_565  A
C2291      C2292   1.413       .  A
C2291      C2298   1.522       .  S
C2292      C2293   1.407   1_545  A
C2292      H2297   1.071       .  S
C2293      C2294   1.424       .  A
C2294      C2295   1.518       .  S
C2295      F2299   1.384       .  S
C2295      F2300   1.380       .  S
C2295      F2301   1.378       .  S
C2298      F2302   1.383       .  S
C2298      F2303   1.382       .  S
C2298      F2304   1.385       .  S
C2305      C2306   1.397       .  A
C2305      C2310   1.403       .  A
C2305      H2312   1.086       .  S
C2306      C2307   1.407       .  A
C2307      C2308   1.394       .  A
C2307      C2314   1.510   1_545  S
C2308      C2309   1.396       .  A
C2308      H2313   1.068       .  S
C2309      C2310   1.412       .  A
C2310      C2311   1.498       .  S
C2311      F2315   1.383       .  S
C2311      F2316   1.378       .  S
C2311      F2317   1.377       .  S
C2314      F2318   1.382   1_565  S
C2314      F2319   1.381       .  S
C2314      F2320   1.382       .  S
C2321      C2322   1.392       .  A
C2321      C2326   1.392       .  A
C2321      H2328   1.085       .  S
C2322      C2323   1.414       .  A
C2323      C2324   1.400       .  A
C2323      C2330   1.516       .  S
C2324      C2325   1.401       .  A
C2324      H2329   1.085       .  S
C2325      C2326   1.406       .  A
C2326      C2327   1.504       .  S
C2327      F2331   1.376       .  S
C2327      F2332   1.381   1_565  S
C2327      F2333   1.380       .  S
C2330      F2334   1.383       .  S
C2330      F2335   1.380       .  S
C2330      F2336   1.381       .  S
C2337      C2338   1.414       .  A
C2337      C2342   1.417       .  A
C2337      H2344   1.075       .  S
C2338      C2339   1.438   1_554  A
C2339      C2340   1.419       .  A
C2339      C2346   1.533   1_556  S
C2340      C2341   1.412   1_556  A
C2340      H2345   1.084       .  S
C2341      C2342   1.441       .  A
C2342      C2343   1.523       .  S
C2343      F2347   1.386       .  S
C2343      F2348   1.371       .  S
C2343      F2349   1.382       .  S
C2346      F2350   1.370   1_554  S
C2346      F2351   1.381       .  S
C2346      F2352   1.390       .  S
C2353      C2354   1.421       .  A
C2353      C2358   1.424       .  A
C2353      H2360   1.081       .  S
C2354      C2355   1.425       .  A
C2355      C2356   1.431       .  A
C2355      C2362   1.519   1_556  S
C2356      C2357   1.418       .  A
C2356      H2361   1.081   1_556  S
C2357      C2358   1.423       .  A
C2358      C2359   1.526       .  S
C2359      F2363   1.384       .  S
C2359      F2364   1.365       .  S
C2359      F2365   1.376       .  S
C2362      F2366   1.383       .  S
C2362      F2367   1.380       .  S
C2362      F2368   1.384       .  S
C2369      C2370   1.401       .  A
C2369      C2374   1.410       .  A
C2369      H2376   1.085       .  S
C2370      C2371   1.427       .  A
C2371      C2372   1.419       .  A
C2371      C2378   1.517       .  S
C2372      C2373   1.407       .  A
C2372      H2377   1.082       .  S
C2373      C2374   1.432       .  A
C2374      C2375   1.510       .  S
C2375      F2379   1.384       .  S
C2375      F2380   1.364       .  S
C2375      F2381   1.383       .  S
C2378      F2382   1.378       .  S
C2378      F2383   1.382       .  S
C2378      F2384   1.385       .  S
C2385      C2386   1.401       .  A
C2385      C2390   1.413       .  A
C2385      H2392   1.083       .  S
C2386      C2387   1.416       .  A
C2387      C2388   1.420       .  A
C2387      C2394   1.515       .  S
C2388      C2389   1.415       .  A
C2388      H2393   1.081       .  S
C2389      C2390   1.435       .  A
C2390      C2391   1.521       .  S
C2391      F2395   1.375       .  S
C2391      F2396   1.376       .  S
C2391      F2397   1.384       .  S
C2394      F2398   1.383       .  S
C2394      F2399   1.381       .  S
C2394      F2400   1.385       .  S
C2401      C2402   1.412       .  A
C2401      C2406   1.392       .  A
C2401      H2408   1.081       .  S
C2402      C2403   1.418       .  A
C2403      C2404   1.399       .  A
C2403      C2410   1.521       .  S
C2404      C2405   1.404       .  A
C2404      H2409   1.079       .  S
C2405      C2406   1.407       .  A
C2406      C2407   1.521       .  S
C2407      F2411   1.385       .  S
C2407      F2412   1.383       .  S
C2407      F2413   1.381       .  S
C2410      F2414   1.381       .  S
C2410      F2415   1.383       .  S
C2410      F2416   1.385       .  S
C2417      C2418   1.392       .  A
C2417      C2422   1.389       .  A
C2417      H2424   1.081       .  S
C2418      C2419   1.416       .  A
C2419      C2420   1.380       .  A
C2419      C2426   1.520   1_556  S
C2420      C2421   1.394       .  A
C2420      H2425   1.080   1_556  S
C2421      C2422   1.413       .  A
C2422      C2423   1.509       .  S
C2423      F2427   1.384       .  S
C2423      F2428   1.382       .  S
C2423      F2429   1.369       .  S
C2426      F2430   1.380       .  S
C2426      F2431   1.376       .  S
C2426      F2432   1.383       .  S
C2433      C2434   1.400       .  A
C2433      C2438   1.400       .  A
C2433      H2440   1.082       .  S
C2434      C2435   1.428   1_556  A
C2435      C2436   1.393       .  A
C2435      C2442   1.521       .  S
C2436      C2437   1.396   1_554  A
C2436      H2441   1.083       .  S
C2437      C2438   1.423       .  A
C2438      C2439   1.515       .  S
C2439      F2443   1.385       .  S
C2439      F2444   1.383       .  S
C2439      F2445   1.379       .  S
C2442      F2446   1.384       .  S
C2442      F2447   1.382       .  S
C2442      F2448   1.386       .  S
C2449      C2450   1.419       .  A
C2449      C2454   1.426       .  A
C2449      H2456   1.076       .  S
C2450      C2451   1.434       .  A
C2451      C2452   1.409       .  A
C2451      C2458   1.518   1_545  S
C2452      C2453   1.407       .  A
C2452      H2457   1.080   1_545  S
C2453      C2454   1.424       .  A
C2454      C2455   1.517       .  S
C2455      F2459   1.384       .  S
C2455      F2460   1.383       .  S
C2455      F2461   1.383       .  S
C2458      F2462   1.382       .  S
C2458      F2463   1.366       .  S
C2458      F2464   1.386       .  S
C2465      C2466   1.414       .  A
C2465      C2470   1.421       .  A
C2465      H2472   1.076   1_545  S
C2466      C2467   1.429       .  A
C2467      C2468   1.423       .  A
C2467      C2474   1.535       .  S
C2468      C2469   1.415       .  A
C2468      H2473   1.082       .  S
C2469      C2470   1.421       .  A
C2470      C2471   1.514   1_545  S
C2471      F2475   1.385       .  S
C2471      F2476   1.381       .  S
C2471      F2477   1.383       .  S
C2474      F2478   1.378       .  S
C2474      F2479   1.382       .  S
C2474      F2480   1.385       .  S
C2481      C2482   1.410       .  A
C2481      C2486   1.421       .  A
C2481      H2488   1.081       .  S
C2482      C2483   1.423       .  A
C2483      C2484   1.411       .  A
C2483      C2490   1.515       .  S
C2484      C2485   1.410       .  A
C2484      H2489   1.081       .  S
C2485      C2486   1.428       .  A
C2486      C2487   1.517       .  S
C2487      F2491   1.384       .  S
C2487      F2492   1.383       .  S
C2487      F2493   1.382       .  S
C2490      F2494   1.375       .  S
C2490      F2495   1.371       .  S
C2490      F2496   1.384       .  S
C2497      C2498   1.420       .  A
C2497      C2502   1.428       .  A
C2497      H2504   1.078       .  S
C2498      C2499   1.430       .  A
C2499      C2500   1.412       .  A
C2499      C2506   1.514       .  S
C2500      C2501   1.403       .  A
C2500      H2505   1.082       .  S
C2501      C2502   1.420       .  A
C2502      C2503   1.517       .  S
C2503      F2507   1.383       .  S
C2503      F2508   1.379       .  S
C2503      F2509   1.383       .  S
C2506      F2510   1.377       .  S
C2506      F2511   1.372       .  S
C2506      F2512   1.385       .  S
C2513      C2514   1.383       .  A
C2513      C2518   1.380       .  A
C2513      H2520   1.072       .  S
C2514      C2515   1.409       .  A
C2515      C2516   1.413       .  A
C2515      C2522   1.513       .  S
C2516      C2517   1.412       .  A
C2516      H2521   1.082       .  S
C2517      C2518   1.422       .  A
C2518      C2519   1.519       .  S
C2519      F2523   1.384       .  S
C2519      F2524   1.382       .  S
C2519      F2525   1.378       .  S
C2522      F2526   1.382       .  S
C2522      F2527   1.379       .  S
C2522      F2528   1.382       .  S
C2529      C2530   1.391       .  A
C2529      C2534   1.388       .  A
C2529      H2536   1.083       .  S
C2530      C2531   1.397       .  A
C2531      C2532   1.383       .  A
C2531      C2538   1.478       .  S
C2532      C2533   1.380       .  A
C2532      H2537   1.085       .  S
C2533      C2534   1.421       .  A
C2534      C2535   1.515       .  S
C2535      F2539   1.383       .  S
C2535      F2540   1.376       .  S
C2535      F2541   1.384       .  S
C2538      F2542   1.384       .  S
C2538      F2543   1.378       .  S
C2538      F2544   1.377       .  S
C2545      C2546   1.389       .  A
C2545      C2550   1.397       .  A
C2545      H2552   1.085       .  S
C2546      C2547   1.414       .  A
C2547      C2548   1.392       .  A
C2547      C2554   1.518       .  S
C2548      C2549   1.399       .  A
C2548      H2553   1.087       .  S
C2549      C2550   1.425       .  A
C2550      C2551   1.504       .  S
C2551      F2555   1.378       .  S
C2551      F2556   1.382       .  S
C2551      F2557   1.369       .  S
C2554      F2558   1.384       .  S
C2554      F2559   1.379       .  S
C2554      F2560   1.384       .  S
C2561      C2562   1.417   1_554  A
C2561      C2566   1.422       .  A
C2561      H2568   1.080       .  S
C2562      C2563   1.418       .  A
C2563      C2564   1.426       .  A
C2563      C2570   1.516       .  S
C2564      C2565   1.422       .  A
C2564      H2569   1.073       .  S
C2565      C2566   1.432   1_556  A
C2566      C2567   1.530       .  S
C2567      F2571   1.385       .  S
C2567      F2572   1.371       .  S
C2567      F2573   1.369       .  S
C2570      F2574   1.383       .  S
C2570      F2575   1.382       .  S
C2570      F2576   1.384       .  S
C2577      C2578   1.413       .  A
C2577      C2582   1.418       .  A
C2577      H2584   1.081       .  S
C2578      C2579   1.427   1_556  A
C2579      C2580   1.422       .  A
C2579      C2586   1.517       .  S
C2580      C2581   1.411   1_554  A
C2580      H2585   1.078       .  S
C2581      C2582   1.425       .  A
C2582      C2583   1.517       .  S
C2583      F2587   1.384       .  S
C2583      F2588   1.372       .  S
C2583      F2589   1.369       .  S
C2586      F2590   1.383       .  S
C2586      F2591   1.382       .  S
C2586      F2592   1.383       .  S
C2593      C2594   1.412       .  A
C2593      C2598   1.423       .  A
C2593      H2600   1.084       .  S
C2594      C2595   1.429       .  A
C2595      C2596   1.429       .  A
C2595      C2602   1.516       .  S
C2596      C2597   1.413       .  A
C2596      H2601   1.078       .  S
C2597      C2598   1.433       .  A
C2598      C2599   1.514       .  S
C2599      F2603   1.383       .  S
C2599      F2604   1.381       .  S
C2599      F2605   1.378       .  S
C2602      F2606   1.378       .  S
C2602      F2607   1.382       .  S
C2602      F2608   1.385       .  S
C2609      C2610   1.405       .  A
C2609      C2614   1.410       .  A
C2609      H2616   1.084       .  S
C2610      C2611   1.427       .  A
C2611      C2612   1.420       .  A
C2611      C2618   1.522       .  S
C2612      C2613   1.410       .  A
C2612      H2617   1.079       .  S
C2613      C2614   1.434       .  A
C2614      C2615   1.513       .  S
C2615      F2619   1.383       .  S
C2615      F2620   1.365       .  S
C2615      F2621   1.384       .  S
C2618      F2622   1.383       .  S
C2618      F2623   1.379       .  S
C2618      F2624   1.385       .  S
C2625      C2626   1.397       .  A
C2625      C2630   1.407       .  A
C2625      H2632   1.079       .  S
C2626      C2627   1.419       .  A
C2627      C2628   1.399       .  A
C2627      C2634   1.513       .  S
C2628      C2629   1.398       .  A
C2628      H2633   1.085       .  S
C2629      C2630   1.420       .  A
C2630      C2631   1.504       .  S
C2631      F2635   1.384       .  S
C2631      F2636   1.383       .  S
C2631      F2637   1.374       .  S
C2634      F2638   1.377       .  S
C2634      F2639   1.381       .  S
C2634      F2640   1.381       .  S
C2641      C2642   1.407       .  A
C2641      C2646   1.398       .  A
C2641      H2648   1.083       .  S
C2642      C2643   1.391       .  A
C2643      C2644   1.372       .  A
C2643      C2650   1.515       .  S
C2644      C2645   1.411       .  A
C2644      H2649   1.080       .  S
C2645      C2646   1.416       .  A
C2646      C2647   1.521       .  S
C2647      F2651   1.385       .  S
C2647      F2652   1.381       .  S
C2647      F2653   1.382       .  S
C2650      F2654   1.382       .  S
C2650      F2655   1.366       .  S
C2650      F2656   1.385       .  S
C2657      C2658   1.395       .  A
C2657      C2662   1.392       .  A
C2657      H2664   1.079       .  S
C2658      C2659   1.407   1_554  A
C2659      C2660   1.391   1_556  A
C2659      C2666   1.503       .  S
C2660      C2661   1.391       .  A
C2660      H2665   1.083   1_554  S
C2661      C2662   1.417       .  A
C2662      C2663   1.523       .  S
C2663      F2667   1.381       .  S
C2663      F2668   1.384       .  S
C2663      F2669   1.381       .  S
C2666      F2670   1.383       .  S
C2666      F2671   1.383       .  S
C2666      F2672   1.371   1_556  S
C2673      C2674   1.406       .  A
C2673      C2678   1.403       .  A
C2673      H2680   1.084       .  S
C2674      C2675   1.433   1_556  A
C2675      C2676   1.379       .  A
C2675      C2682   1.524       .  S
C2676      C2677   1.376   1_554  A
C2676      H2681   1.083       .  S
C2677      C2678   1.422       .  A
C2678      C2679   1.519       .  S
C2679      F2683   1.380       .  S
C2679      F2684   1.384       .  S
C2679      F2685   1.379       .  S
C2682      F2686   1.373       .  S
C2682      F2687   1.381       .  S
C2682      F2688   1.387       .  S
C2689      C2690   1.408   1_556  A
C2689      C2694   1.425       .  A
C2689      H2696   1.082       .  S
C2690      C2691   1.419       .  A
C2691      C2692   1.417       .  A
C2691      C2698   1.519       .  S
C2692      C2693   1.415   1_554  A
C2692      H2697   1.072       .  S
C2693      C2694   1.430       .  A
C2694      C2695   1.514       .  S
C2695      F2699   1.385       .  S
C2695      F2700   1.375       .  S
C2695      F2701   1.371       .  S
C2698      F2702   1.384       .  S
C2698      F2703   1.382       .  S
C2698      F2704   1.385       .  S
C2705      C2706   1.409   1_554  A
C2705      C2710   1.431       .  A
C2705      H2712   1.081       .  S
C2706      C2707   1.441       .  A
C2707      C2708   1.426       .  A
C2707      C2714   1.524       .  S
C2708      C2709   1.407   1_556  A
C2708      H2713   1.079       .  S
C2709      C2710   1.438       .  A
C2710      C2711   1.517       .  S
C2711      F2715   1.385       .  S
C2711      F2716   1.376       .  S
C2711      F2717   1.377       .  S
C2714      F2718   1.383       .  S
C2714      F2719   1.382       .  S
C2714      F2720   1.384       .  S
C2721      C2722   1.419       .  A
C2721      C2726   1.422       .  A
C2721      H2728   1.079       .  S
C2722      C2723   1.434       .  A
C2723      C2724   1.421       .  A
C2723      C2730   1.517   1_455  S
C2724      C2725   1.405       .  A
C2724      H2729   1.082   1_455  S
C2725      C2726   1.417       .  A
C2726      C2727   1.516       .  S
C2727      F2731   1.384       .  S
C2727      F2732   1.382       .  S
C2727      F2733   1.384       .  S
C2730      F2734   1.380       .  S
C2730      F2735   1.376       .  S
C2730      F2736   1.385       .  S
C2737      C2738   1.410   1_655  A
C2737      C2742   1.417       .  A
C2737      H2744   1.079       .  S
C2738      C2739   1.426       .  A
C2739      C2740   1.428       .  A
C2739      C2746   1.516       .  S
C2740      C2741   1.419   1_455  A
C2740      H2745   1.078       .  S
C2741      C2742   1.438       .  A
C2742      C2743   1.521       .  S
C2743      F2747   1.386       .  S
C2743      F2748   1.371       .  S
C2743      F2749   1.375       .  S
C2746      F2750   1.383       .  S
C2746      F2751   1.382       .  S
C2746      F2752   1.384       .  S
C2753      C2754   1.407   1_554  A
C2753      C2758   1.422       .  A
C2753      H2760   1.082       .  S
C2754      C2755   1.426       .  A
C2755      C2756   1.426       .  A
C2755      C2762   1.517       .  S
C2756      C2757   1.414       .  A
C2756      H2761   1.080       .  S
C2757      C2758   1.436   1_556  A
C2758      C2759   1.516       .  S
C2759      F2763   1.385       .  S
C2759      F2764   1.370       .  S
C2759      F2765   1.381       .  S
C2762      F2766   1.383       .  S
C2762      F2767   1.383       .  S
C2762      F2768   1.384       .  S
C2769      C2770   1.407   1_455  A
C2769      C2774   1.420       .  A
C2769      H2776   1.080       .  S
C2770      C2771   1.432       .  A
C2771      C2772   1.424       .  A
C2771      C2778   1.520       .  S
C2772      C2773   1.410       .  A
C2772      H2777   1.082       .  S
C2773      C2774   1.432   1_655  A
C2774      C2775   1.519       .  S
C2775      F2779   1.385       .  S
C2775      F2780   1.383       .  S
C2775      F2781   1.383       .  S
C2778      F2782   1.385       .  S
C2778      F2783   1.376       .  S
C2778      F2784   1.377       .  S
C2785      C2786   1.401       .  A
C2785      C2790   1.423       .  A
C2785      H2792   1.083       .  S
C2786      C2787   1.419       .  A
C2787      C2788   1.420       .  A
C2787      C2794   1.518   1_556  S
C2788      C2789   1.417       .  A
C2788      H2793   1.078       .  S
C2789      C2790   1.444       .  A
C2790      C2791   1.519       .  S
C2791      F2795   1.386       .  S
C2791      F2796   1.378       .  S
C2791      F2797   1.374       .  S
C2794      F2798   1.384   1_554  S
C2794      F2799   1.382       .  S
C2794      F2800   1.383       .  S
C2801      C2802   1.415       .  A
C2801      C2806   1.423       .  A
C2801      H2808   1.081   1_455  S
C2802      C2803   1.429       .  A
C2803      C2804   1.419       .  A
C2803      C2810   1.528       .  S
C2804      C2805   1.414       .  A
C2804      H2809   1.079       .  S
C2805      C2806   1.424       .  A
C2806      C2807   1.516   1_455  S
C2807      F2811   1.385       .  S
C2807      F2812   1.383       .  S
C2807      F2813   1.382       .  S
C2810      F2814   1.384       .  S
C2810      F2815   1.372       .  S
C2810      F2816   1.377       .  S
C2817      C2818   1.407       .  A
C2817      C2822   1.419       .  A
C2817      H2824   1.084       .  S
C2818      C2819   1.427       .  A
C2819      C2820   1.421       .  A
C2819      C2826   1.518       .  S
C2820      C2821   1.409       .  A
C2820      H2825   1.077       .  S
C2821      C2822   1.431       .  A
C2822      C2823   1.514       .  S
C2823      F2827   1.384       .  S
C2823      F2828   1.382       .  S
C2823      F2829   1.369       .  S
C2826      F2830   1.382       .  S
C2826      F2831   1.377       .  S
C2826      F2832   1.385       .  S
C2833      C2834   1.401       .  A
C2833      C2838   1.409       .  A
C2833      H2840   1.084       .  S
C2834      C2835   1.424       .  A
C2835      C2836   1.420       .  A
C2835      C2842   1.525       .  S
C2836      C2837   1.411       .  A
C2836      H2841   1.079       .  S
C2837      C2838   1.436       .  A
C2838      C2839   1.512       .  S
C2839      F2843   1.384       .  S
C2839      F2844   1.361       .  S
C2839      F2845   1.383       .  S
C2842      F2846   1.382       .  S
C2842      F2847   1.383       .  S
C2842      F2848   1.383       .  S
C2849      C2850   1.403       .  A
C2849      C2854   1.404       .  A
C2849      H2856   1.085       .  S
C2850      C2851   1.431   1_655  A
C2851      C2852   1.415       .  A
C2851      C2858   1.520       .  S
C2852      C2853   1.403   1_455  A
C2852      H2857   1.083       .  S
C2853      C2854   1.430       .  A
C2854      C2855   1.516       .  S
C2855      F2859   1.382       .  S
C2855      F2860   1.383       .  S
C2855      F2861   1.362       .  S
C2858      F2862   1.377       .  S
C2858      F2863   1.382       .  S
C2858      F2864   1.385       .  S
C2865      C2866   1.400       .  A
C2865      C2870   1.412       .  A
C2865      H2872   1.085       .  S
C2866      C2867   1.425       .  A
C2867      C2868   1.418       .  A
C2867      C2874   1.520   1_455  S
C2868      C2869   1.409       .  A
C2868      H2873   1.081   1_455  S
C2869      C2870   1.434       .  A
C2870      C2871   1.511       .  S
C2871      F2875   1.384       .  S
C2871      F2876   1.364       .  S
C2871      F2877   1.384       .  S
C2874      F2878   1.380       .  S
C2874      F2879   1.381       .  S
C2874      F2880   1.384       .  S
C2881      C2882   1.397       .  A
C2881      C2886   1.384       .  A
C2881      H2888   1.080       .  S
C2882      C2883   1.416       .  A
C2883      C2884   1.404       .  A
C2883      C2890   1.516       .  S
C2884      C2885   1.401       .  A
C2884      H2889   1.084       .  S
C2885      C2886   1.415       .  A
C2886      C2887   1.523   1_455  S
C2887      F2891   1.380       .  S
C2887      F2892   1.378       .  S
C2887      F2893   1.383       .  S
C2890      F2894   1.383       .  S
C2890      F2895   1.383       .  S
C2890      F2896   1.385       .  S
C2897      C2898   1.400       .  A
C2897      C2902   1.396   1_655  A
C2897      H2904   1.085   1_655  S
C2898      C2899   1.416       .  A
C2899      C2900   1.403       .  A
C2899      C2906   1.519       .  S
C2900      C2901   1.401       .  A
C2900      H2905   1.081       .  S
C2901      C2902   1.417   1_655  A
C2902      C2903   1.519       .  S
C2903      F2907   1.375       .  S
C2903      F2908   1.376       .  S
C2903      F2909   1.383       .  S
C2906      F2910   1.383       .  S
C2906      F2911   1.380       .  S
C2906      F2912   1.384       .  S
C2913      C2914   1.406       .  A
C2913      C2918   1.412       .  A
C2913      H2920   1.081       .  S
C2914      C2915   1.414       .  A
C2915      C2916   1.419       .  A
C2915      C2922   1.515       .  S
C2916      C2917   1.416       .  A
C2916      H2921   1.080       .  S
C2917      C2918   1.426       .  A
C2918      C2919   1.523       .  S
C2919      F2923   1.384       .  S
C2919      F2924   1.377       .  S
C2919      F2925   1.375       .  S
C2922      F2926   1.382       .  S
C2922      F2927   1.383       .  S
C2922      F2928   1.385       .  S
C2929      C2930   1.407       .  A
C2929      C2934   1.416       .  A
C2929      H2936   1.080       .  S
C2930      C2931   1.425       .  A
C2931      C2932   1.426       .  A
C2931      C2938   1.514       .  S
C2932      C2933   1.416       .  A
C2932      H2937   1.082       .  S
C2933      C2934   1.432       .  A
C2934      C2935   1.518       .  S
C2935      F2939   1.385       .  S
C2935      F2940   1.373       .  S
C2935      F2941   1.378       .  S
C2938      F2942   1.383       .  S
C2938      F2943   1.382       .  S
C2938      F2944   1.385       .  S
C2945      C2946   1.416   1_556  A
C2945      C2950   1.430       .  A
C2945      H2952   1.082       .  S
C2946      C2947   1.435       .  A
C2947      C2948   1.417       .  A
C2947      C2954   1.507       .  S
C2948      C2949   1.404   1_554  A
C2948      H2953   1.085       .  S
C2949      C2950   1.428       .  A
C2950      C2951   1.513       .  S
C2951      F2955   1.384       .  S
C2951      F2956   1.381       .  S
C2951      F2957   1.383       .  S
C2954      F2958   1.384       .  S
C2954      F2959   1.361       .  S
C2954      F2960   1.383       .  S
C2961      C2962   1.398       .  A
C2961      C2966   1.403       .  A
C2961      H2968   1.086       .  S
C2962      C2963   1.425       .  A
C2963      C2964   1.426       .  A
C2963      C2970   1.516   1_556  S
C2964      C2965   1.413       .  A
C2964      H2969   1.080   1_556  S
C2965      C2966   1.435       .  A
C2966      C2967   1.506       .  S
C2967      F2971   1.385       .  S
C2967      F2972   1.358       .  S
C2967      F2973   1.384       .  S
C2970      F2974   1.379       .  S
C2970      F2975   1.382       .  S
C2970      F2976   1.384       .  S
C2977      C2978   1.400       .  A
C2977      C2982   1.393       .  A
C2977      H2984   1.083       .  S
C2978      C2979   1.409       .  A
C2979      C2980   1.393       .  A
C2979      C2986   1.519       .  S
C2980      C2981   1.403       .  A
C2980      H2985   1.076       .  S
C2981      C2982   1.407       .  A
C2982      C2983   1.499       .  S
C2983      F2987   1.385       .  S
C2983      F2988   1.380       .  S
C2983      F2989   1.359       .  S
C2986      F2990   1.384       .  S
C2986      F2991   1.380       .  S
C2986      F2992   1.383       .  S
C2993      C2994   1.409       .  A
C2993      C2998   1.409       .  A
C2993      H3000   1.080       .  S
C2994      C2995   1.410       .  A
C2995      C2996   1.382       .  A
C2995      C3002   1.523       .  S
C2996      C2997   1.399       .  A
C2996      H3001   1.070       .  S
C2997      C2998   1.411       .  A
C2998      C2999   1.516   1_556  S
C2999      F3003   1.384       .  S
C2999      F3004   1.370       .  S
C2999      F3005   1.376       .  S
C3002      F3006   1.383       .  S
C3002      F3007   1.378       .  S
C3002      F3008   1.384       .  S
C3009      C3010   1.406   1_556  A
C3009      C3014   1.386       .  A
C3009      H3016   1.087       .  S
C3010      C3011   1.403       .  A
C3011      C3012   1.392   1_554  A
C3011      C3018   1.487       .  S
C3012      C3013   1.387       .  A
C3012      H3017   1.081       .  S
C3013      C3014   1.410       .  A
C3014      C3015   1.504       .  S
C3015      F3019   1.380       .  S
C3015      F3020   1.378       .  S
C3015      F3021   1.379       .  S
C3018      F3022   1.368   1_554  S
C3018      F3023   1.380       .  S
C3018      F3024   1.361       .  S
C3025      C3026   1.405       .  A
C3025      C3030   1.410       .  A
C3025      H3032   1.075       .  S
C3026      C3027   1.423       .  A
C3027      C3028   1.419       .  A
C3027      C3034   1.516       .  S
C3028      C3029   1.410       .  A
C3028      H3033   1.082       .  S
C3029      C3030   1.425       .  A
C3030      C3031   1.521       .  S
C3031      F3035   1.385       .  S
C3031      F3036   1.383       .  S
C3031      F3037   1.384       .  S
C3034      F3038   1.379       .  S
C3034      F3039   1.381       .  S
C3034      F3040   1.384       .  S
C3041      C3042   1.407   1_455  A
C3041      C3046   1.416       .  A
C3041      H3048   1.081       .  S
C3042      C3043   1.435       .  A
C3043      C3044   1.419       .  A
C3043      C3050   1.507       .  S
C3044      C3045   1.399   1_655  A
C3044      H3049   1.085       .  S
C3045      C3046   1.427       .  A
C3046      C3047   1.516       .  S
C3047      F3051   1.381       .  S
C3047      F3052   1.379       .  S
C3047      F3053   1.385       .  S
C3050      F3054   1.371       .  S
C3050      F3055   1.379       .  S
C3050      F3056   1.384       .  S
C3057      C3058   1.410       .  A
C3057      C3062   1.419       .  A
C3057      H3064   1.084   1_455  S
C3058      C3059   1.431       .  A
C3059      C3060   1.420       .  A
C3059      C3066   1.531       .  S
C3060      C3061   1.407       .  A
C3060      H3065   1.083       .  S
C3061      C3062   1.432       .  A
C3062      C3063   1.520   1_455  S
C3063      F3067   1.383       .  S
C3063      F3068   1.379       .  S
C3063      F3069   1.383       .  S
C3066      F3070   1.382       .  S
C3066      F3071   1.371       .  S
C3066      F3072   1.384       .  S
C3073      C3074   1.416       .  A
C3073      C3078   1.418       .  A
C3073      H3080   1.078       .  S
C3074      C3075   1.433       .  A
C3075      C3076   1.423       .  A
C3075      C3082   1.515       .  S
C3076      C3077   1.405       .  A
C3076      H3081   1.083       .  S
C3077      C3078   1.420       .  A
C3078      C3079   1.518       .  S
C3079      F3083   1.385       .  S
C3079      F3084   1.382       .  S
C3079      F3085   1.384       .  S
C3082      F3086   1.380       .  S
C3082      F3087   1.379       .  S
C3082      F3088   1.385       .  S
C3089      C3090   1.408       .  A
C3089      C3094   1.411       .  A
C3089      H3096   1.081       .  S
C3090      C3091   1.410       .  A
C3091      C3092   1.396       .  A
C3091      C3098   1.522       .  S
C3092      C3093   1.400       .  A
C3092      H3097   1.072       .  S
C3093      C3094   1.411       .  A
C3094      C3095   1.516       .  S
C3095      F3099   1.384       .  S
C3095      F3100   1.379       .  S
C3095      F3101   1.382       .  S
C3098      F3102   1.381       .  S
C3098      F3103   1.382       .  S
C3098      F3104   1.384       .  S
C3105      C3106   1.396       .  A
C3105      C3110   1.388       .  A
C3105      H3112   1.084       .  S
C3106      C3107   1.409       .  A
C3107      C3108   1.398       .  A
C3107      C3114   1.517       .  S
C3108      C3109   1.404       .  A
C3108      H3113   1.084       .  S
C3109      C3110   1.403       .  A
C3110      C3111   1.508       .  S
C3111      F3115   1.382       .  S
C3111      F3116   1.382       .  S
C3111      F3117   1.379       .  S
C3114      F3118   1.382       .  S
C3114      F3119   1.382   1_655  S
C3114      F3120   1.385       .  S
C3121      C3122   1.403       .  A
C3121      C3126   1.411       .  A
C3121      H3128   1.075       .  S
C3122      C3123   1.412       .  A
C3123      C3124   1.375       .  A
C3123      C3130   1.509       .  S
C3124      C3125   1.390       .  A
C3124      H3129   1.081       .  S
C3125      C3126   1.419       .  A
C3126      C3127   1.511       .  S
C3127      F3131   1.384       .  S
C3127      F3132   1.382       .  S
C3127      F3133   1.373       .  S
C3130      F3134   1.377       .  S
C3130      F3135   1.380       .  S
C3130      F3136   1.383       .  S
C3137      C3138   1.416       .  A
C3137      C3142   1.429       .  A
C3137      H3144   1.082       .  S
C3138      C3139   1.439   1_556  A
C3139      C3140   1.413       .  A
C3139      C3146   1.529       .  S
C3140      C3141   1.397   1_554  A
C3140      H3145   1.073       .  S
C3141      C3142   1.427       .  A
C3142      C3143   1.517       .  S
C3143      F3147   1.384       .  S
C3143      F3148   1.383       .  S
C3143      F3149   1.380       .  S
C3146      F3150   1.384       .  S
C3146      F3151   1.381       .  S
C3146      F3152   1.385       .  S
C3153      C3154   1.411       .  A
C3153      C3158   1.419       .  A
C3153      H3160   1.072       .  S
C3154      C3155   1.436   1_556  A
C3155      C3156   1.425       .  A
C3155      C3162   1.514       .  S
C3156      C3157   1.409   1_554  A
C3156      H3161   1.084       .  S
C3157      C3158   1.426       .  A
C3158      C3159   1.520       .  S
C3159      F3163   1.385       .  S
C3159      F3164   1.384       .  S
C3159      F3165   1.383       .  S
C3162      F3166   1.381       .  S
C3162      F3167   1.369       .  S
C3162      F3168   1.379       .  S
C3169      C3170   1.413       .  A
C3169      C3174   1.418       .  A
C3169      H3176   1.084       .  S
C3170      C3171   1.426       .  A
C3171      C3172   1.421       .  A
C3171      C3178   1.522       .  S
C3172      C3173   1.411       .  A
C3172      H3177   1.074       .  S
C3173      C3174   1.426       .  A
C3174      C3175   1.517       .  S
C3175      F3179   1.383       .  S
C3175      F3180   1.373       .  S
C3175      F3181   1.381       .  S
C3178      F3182   1.382       .  S
C3178      F3183   1.382       .  S
C3178      F3184   1.385       .  S
C3185      C3186   1.415       .  A
C3185      C3190   1.416       .  A
C3185      H3192   1.078       .  S
C3186      C3187   1.433       .  A
C3187      C3188   1.412       .  A
C3187      C3194   1.519       .  S
C3188      C3189   1.405       .  A
C3188      H3193   1.084       .  S
C3189      C3190   1.417       .  A
C3190      C3191   1.519       .  S
C3191      F3195   1.383       .  S
C3191      F3196   1.382       .  S
C3191      F3197   1.380       .  S
C3194      F3198   1.371       .  S
C3194      F3199   1.381       .  S
C3194      F3200   1.381       .  S
C3201      C3202   1.404       .  A
C3201      C3206   1.385       .  A
C3201      H3208   1.079       .  S
C3202      C3203   1.405       .  A
C3203      C3204   1.404       .  A
C3203      C3210   1.509       .  S
C3204      C3205   1.405       .  A
C3204      H3209   1.086       .  S
C3205      C3206   1.408       .  A
C3206      C3207   1.523       .  S
C3207      F3211   1.383       .  S
C3207      F3212   1.380       .  S
C3207      F3213   1.384       .  S
C3210      F3214   1.377       .  S
C3210      F3215   1.371       .  S
C3210      F3216   1.381       .  S
C3217      C3218   1.403       .  A
C3217      C3222   1.390       .  A
C3217      H3224   1.080       .  S
C3218      C3219   1.412       .  A
C3219      C3220   1.391       .  A
C3219      C3226   1.519       .  S
C3220      C3221   1.405       .  A
C3220      H3225   1.082       .  S
C3221      C3222   1.414       .  A
C3222      C3223   1.520       .  S
C3223      F3227   1.385       .  S
C3223      F3228   1.377       .  S
C3223      F3229   1.377       .  S
C3226      F3230   1.381       .  S
C3226      F3231   1.381       .  S
C3226      F3232   1.385       .  S
C3233      C3234   1.397   1_556  A
C3233      C3238   1.407       .  A
C3233      H3240   1.084       .  S
C3234      C3235   1.411       .  A
C3235      C3236   1.393   1_554  A
C3235      C3242   1.519       .  S
C3236      C3237   1.407       .  A
C3236      H3241   1.081       .  S
C3237      C3238   1.417       .  A
C3238      C3239   1.502       .  S
C3239      F3243   1.374       .  S
C3239      F3244   1.368       .  S
C3239      F3245   1.383       .  S
C3242      F3246   1.381       .  S
C3242      F3247   1.383       .  S
C3242      F3248   1.383       .  S
C3249      C3250   1.411   1_554  A
C3249      C3254   1.400       .  A
C3249      H3256   1.082       .  S
C3250      C3251   1.417       .  A
C3251      C3252   1.395       .  A
C3251      C3258   1.526       .  S
C3252      C3253   1.409       .  A
C3252      H3257   1.084       .  S
C3253      C3254   1.410   1_556  A
C3254      C3255   1.519       .  S
C3255      F3259   1.382       .  S
C3255      F3260   1.383       .  S
C3255      F3261   1.378       .  S
C3258      F3262   1.382       .  S
C3258      F3263   1.373       .  S
C3258      F3264   1.383       .  S
C3265      C3266   1.409       .  A
C3265      C3270   1.418       .  A
C3265      H3272   1.083       .  S
C3266      C3267   1.424       .  A
C3267      C3268   1.418       .  A
C3267      C3274   1.518       .  S
C3268      C3269   1.411       .  A
C3268      H3273   1.080       .  S
C3269      C3270   1.430       .  A
C3270      C3271   1.522       .  S
C3271      F3275   1.385       .  S
C3271      F3276   1.375       .  S
C3271      F3277   1.379       .  S
C3274      F3278   1.383       .  S
C3274      F3279   1.383       .  S
C3274      F3280   1.385       .  S
C3281      C3282   1.410       .  A
C3281      C3286   1.421       .  A
C3281      H3288   1.084       .  S
C3282      C3283   1.432       .  A
C3283      C3284   1.417       .  A
C3283      C3290   1.526       .  S
C3284      C3285   1.403       .  A
C3284      H3289   1.076       .  S
C3285      C3286   1.430       .  A
C3286      C3287   1.516       .  S
C3287      F3291   1.383       .  S
C3287      F3292   1.377       .  S
C3287      F3293   1.382       .  S
C3290      F3294   1.380       .  S
C3290      F3295   1.384       .  S
C3290      F3296   1.385       .  S
C3297      C3298   1.410       .  A
C3297      C3302   1.414       .  A
C3297      H3304   1.078       .  S
C3298      C3299   1.420       .  A
C3299      C3300   1.431       .  A
C3299      C3306   1.514       .  S
C3300      C3301   1.423       .  A
C3300      H3305   1.080       .  S
C3301      C3302   1.429       .  A
C3302      C3303   1.521       .  S
C3303      F3307   1.372       .  S
C3303      F3308   1.379       .  S
C3303      F3309   1.385       .  S
C3306      F3310   1.382       .  S
C3306      F3311   1.384       .  S
C3306      F3312   1.384       .  S
C3313      C3314   1.417       .  A
C3313      C3318   1.418       .  A
C3313      H3320   1.066       .  S
C3314      C3315   1.442       .  A
C3315      C3316   1.418       .  A
C3315      C3322   1.507       .  S
C3316      C3317   1.401       .  A
C3316      H3321   1.085       .  S
C3317      C3318   1.419       .  A
C3318      C3319   1.519       .  S
C3319      F3323   1.385       .  S
C3319      F3324   1.384       .  S
C3319      F3325   1.383       .  S
C3322      F3326   1.384       .  S
C3322      F3327   1.355       .  S
C3322      F3328   1.384       .  S
C3329      C3330   1.418       .  A
C3329      C3334   1.425       .  A
C3329      H3336   1.081       .  S
C3330      C3331   1.428       .  A
C3331      C3332   1.422       .  A
C3331      C3338   1.520       .  S
C3332      C3333   1.407       .  A
C3332      H3337   1.071       .  S
C3333      C3334   1.426       .  A
C3334      C3335   1.520       .  S
C3335      F3339   1.384       .  S
C3335      F3340   1.371       .  S
C3335      F3341   1.378       .  S
C3338      F3342   1.383       .  S
C3338      F3343   1.383       .  S
C3338      F3344   1.385       .  S
C3345      C3346   1.414       .  A
C3345      C3350   1.419       .  A
C3345      H3352   1.084       .  S
C3346      C3347   1.427       .  A
C3347      C3348   1.420       .  A
C3347      C3354   1.517       .  S
C3348      C3349   1.407       .  A
C3348      H3353   1.074       .  S
C3349      C3350   1.435       .  A
C3350      C3351   1.521       .  S
C3351      F3355   1.384       .  S
C3351      F3356   1.372       .  S
C3351      F3357   1.380       .  S
C3354      F3358   1.381       .  S
C3354      F3359   1.382       .  S
C3354      F3360   1.383       .  S
C3361      C3362   1.409       .  A
C3361      C3366   1.415       .  A
C3361      H3368   1.084       .  S
C3362      C3363   1.433       .  A
C3363      C3364   1.423       .  A
C3363      C3370   1.521       .  S
C3364      C3365   1.407       .  A
C3364      H3369   1.082       .  S
C3365      C3366   1.430       .  A
C3366      C3367   1.514       .  S
C3367      F3371   1.384       .  S
C3367      F3372   1.383       .  S
C3367      F3373   1.371       .  S
C3370      F3374   1.383       .  S
C3370      F3375   1.380       .  S
C3370      F3376   1.385       .  S
C3377      C3378   1.421       .  A
C3377      C3382   1.427       .  A
C3377      H3384   1.079       .  S
C3378      C3379   1.423       .  A
C3379      C3380   1.416       .  A
C3379      C3386   1.518       .  S
C3380      C3381   1.413       .  A
C3380      H3385   1.080       .  S
C3381      C3382   1.419       .  A
C3382      C3383   1.515       .  S
C3383      F3387   1.385       .  S
C3383      F3388   1.384       .  S
C3383      F3389   1.381       .  S
C3386      F3390   1.371       .  S
C3386      F3391   1.372       .  S
C3386      F3392   1.383       .  S
C3393      C3394   1.405       .  A
C3393      C3398   1.407       .  A
C3393      H3400   1.084       .  S
C3394      C3395   1.414       .  A
C3395      C3396   1.395       .  A
C3395      C3402   1.509       .  S
C3396      C3397   1.393       .  A
C3396      H3401   1.085       .  S
C3397      C3398   1.410       .  A
C3398      C3399   1.514       .  S
C3399      F3403   1.384       .  S
C3399      F3404   1.383       .  S
C3399      F3405   1.382       .  S
C3402      F3406   1.379       .  S
C3402      F3407   1.374       .  S
C3402      F3408   1.382       .  S
C3409      C3410   1.407       .  A
C3409      C3414   1.418       .  A
C3409      H3416   1.071       .  S
C3410      C3411   1.444       .  A
C3411      C3412   1.418       .  A
C3411      C3418   1.519       .  S
C3412      C3413   1.402       .  A
C3412      H3417   1.084       .  S
C3413      C3414   1.433       .  A
C3414      C3415   1.524       .  S
C3415      F3419   1.385       .  S
C3415      F3420   1.383       .  S
C3415      F3421   1.381       .  S
C3418      F3422   1.383       .  S
C3418      F3423   1.360       .  S
C3418      F3424   1.380       .  S
C3425      C3426   1.406       .  A
C3425      C3430   1.421       .  A
C3425      H3432   1.082       .  S
C3426      C3427   1.424       .  A
C3427      C3428   1.419       .  A
C3427      C3434   1.518       .  S
C3428      C3429   1.413       .  A
C3428      H3433   1.079       .  S
C3429      C3430   1.432       .  A
C3430      C3431   1.517       .  S
C3431      F3435   1.385       .  S
C3431      F3436   1.379       .  S
C3431      F3437   1.378       .  S
C3434      F3438   1.382       .  S
C3434      F3439   1.384       .  S
C3434      F3440   1.385       .  S
C3441      C3442   1.413       .  A
C3441      C3446   1.415       .  A
C3441      H3448   1.083       .  S
C3442      C3443   1.424       .  A
C3443      C3444   1.428       .  A
C3443      C3450   1.516       .  S
C3444      C3445   1.420       .  A
C3444      H3449   1.073       .  S
C3445      C3446   1.434       .  A
C3446      C3447   1.519       .  S
C3447      F3451   1.383       .  S
C3447      F3452   1.366       .  S
C3447      F3453   1.384       .  S
C3450      F3454   1.383       .  S
C3450      F3455   1.383       .  S
C3450      F3456   1.385       .  S
C3457      C3458   1.418       .  A
C3457      C3462   1.424       .  A
C3457      H3464   1.081       .  S
C3458      C3459   1.423       .  A
C3459      C3460   1.417       .  A
C3459      C3466   1.515       .  S
C3460      C3461   1.405       .  A
C3460      H3465   1.083       .  S
C3461      C3462   1.415       .  A
C3462      C3463   1.513       .  S
C3463      F3467   1.384       .  S
C3463      F3468   1.383       .  S
C3463      F3469   1.383       .  S
C3466      F3470   1.375       .  S
C3466      F3471   1.372       .  S
C3466      F3472   1.383       .  S
C3473      C3474   1.387       .  A
C3473      C3478   1.389       .  A
C3473      H3480   1.088       .  S
C3474      C3475   1.413       .  A
C3475      C3476   1.393       .  A
C3475      C3482   1.513       .  S
C3476      C3477   1.401       .  A
C3476      H3481   1.086       .  S
C3477      C3478   1.400       .  A
C3478      C3479   1.496       .  S
C3479      F3483   1.383       .  S
C3479      F3484   1.377       .  S
C3479      F3485   1.365       .  S
C3482      F3486   1.382       .  S
C3482      F3487   1.381       .  S
C3482      F3488   1.381       .  S
C3489      C3490   1.409       .  A
C3489      C3494   1.421       .  A
C3489      H3496   1.064       .  S
C3490      C3491   1.431       .  A
C3491      C3492   1.420       .  A
C3491      C3498   1.521       .  S
C3492      C3493   1.415       .  A
C3492      H3497   1.083       .  S
C3493      C3494   1.426       .  A
C3494      C3495   1.520       .  S
C3495      F3499   1.384       .  S
C3495      F3500   1.383       .  S
C3495      F3501   1.382       .  S
C3498      F3502   1.385       .  S
C3498      F3503   1.369       .  S
C3498      F3504   1.376       .  S
C3505      C3506   1.407       .  A
C3505      C3510   1.420       .  A
C3505      H3512   1.081       .  S
C3506      C3507   1.428       .  A
C3507      C3508   1.419       .  A
C3507      C3514   1.521       .  S
C3508      C3509   1.408       .  A
C3508      H3513   1.073       .  S
C3509      C3510   1.431       .  A
C3510      C3511   1.513       .  S
C3511      F3515   1.385       .  S
C3511      F3516   1.368       .  S
C3511      F3517   1.373       .  S
C3514      F3518   1.384       .  S
C3514      F3519   1.383       .  S
C3514      F3520   1.383       .  S
C3521      C3522   1.397       .  A
C3521      C3526   1.411       .  A
C3521      H3528   1.086       .  S
C3522      C3523   1.425       .  A
C3523      C3524   1.422       .  A
C3523      C3530   1.518       .  S
C3524      C3525   1.409       .  A
C3524      H3529   1.078       .  S
C3525      C3526   1.439       .  A
C3526      C3527   1.510       .  S
C3527      F3531   1.382       .  S
C3527      F3532   1.361       .  S
C3527      F3533   1.384       .  S
C3530      F3534   1.382       .  S
C3530      F3535   1.379       .  S
C3530      F3536   1.385       .  S
C3537      C3538   1.406       .  A
C3537      C3542   1.419       .  A
C3537      H3544   1.082       .  S
C3538      C3539   1.433       .  A
C3539      C3540   1.416       .  A
C3539      C3546   1.517       .  S
C3540      C3541   1.407       .  A
C3540      H3545   1.084       .  S
C3541      C3542   1.439       .  A
C3542      C3543   1.531       .  S
C3543      F3547   1.385       .  S
C3543      F3548   1.382       .  S
C3543      F3549   1.375       .  S
C3546      F3550   1.384       .  S
C3546      F3551   1.373       .  S
C3546      F3552   1.383       .  S
C3553      C3554   1.398       .  A
C3553      C3558   1.390       .  A
C3553      H3560   1.087       .  S
C3554      C3555   1.412       .  A
C3555      C3556   1.387       .  A
C3555      C3562   1.520       .  S
C3556      C3557   1.397       .  A
C3556      H3561   1.084       .  S
C3557      C3558   1.411       .  A
C3558      C3559   1.517       .  S
C3559      F3563   1.377       .  S
C3559      F3564   1.375       .  S
C3559      F3565   1.382       .  S
C3562      F3566   1.379       .  S
C3562      F3567   1.378       .  S
C3562      F3568   1.383       .  S
C3569      C3570   1.407       .  A
C3569      C3574   1.404       .  A
C3569      H3576   1.083       .  S
C3570      C3571   1.429       .  A
C3571      C3572   1.389       .  A
C3571      C3578   1.525       .  S
C3572      C3573   1.395       .  A
C3572      H3577   1.084       .  S
C3573      C3574   1.411       .  A
C3574      C3575   1.513       .  S
C3575      F3579   1.384       .  S
C3575      F3580   1.371       .  S
C3575      F3581   1.379       .  S
C3578      F3582   1.383       .  S
C3578      F3583   1.381       .  S
C3578      F3584   1.385       .  S
C3585      C3586   1.396       .  A
C3585      C3590   1.382       .  A
C3585      H3592   1.086       .  S
C3586      C3587   1.408       .  A
C3587      C3588   1.407       .  A
C3587      C3594   1.519       .  S
C3588      C3589   1.410       .  A
C3588      H3593   1.083       .  S
C3589      C3590   1.414       .  A
C3590      C3591   1.516       .  S
C3591      F3595   1.383       .  S
C3591      F3596   1.379       .  S
C3591      F3597   1.382       .  S
C3594      F3598   1.381       .  S
C3594      F3599   1.382       .  S
C3594      F3600   1.384       .  S
C3601      C3602   1.415       .  A
C3601      C3606   1.426       .  A
C3601      H3608   1.079       .  S
C3602      C3603   1.430       .  A
C3603      C3604   1.423       .  A
C3603      C3610   1.524       .  S
C3604      C3605   1.417       .  A
C3604      H3609   1.080       .  S
C3605      C3606   1.427       .  A
C3606      C3607   1.516       .  S
C3607      F3611   1.384       .  S
C3607      F3612   1.382       .  S
C3607      F3613   1.383       .  S
C3610      F3614   1.385       .  S
C3610      F3615   1.377       .  S
C3610      F3616   1.381       .  S
C3617      C3618   1.406       .  A
C3617      C3622   1.419       .  A
C3617      H3624   1.085       .  S
C3618      C3619   1.423       .  A
C3619      C3620   1.416       .  A
C3619      C3626   1.516       .  S
C3620      C3621   1.409       .  A
C3620      H3625   1.071       .  S
C3621      C3622   1.435       .  A
C3622      C3623   1.511       .  S
C3623      F3627   1.385       .  S
C3623      F3628   1.366       .  S
C3623      F3629   1.382       .  S
C3626      F3630   1.379       .  S
C3626      F3631   1.383       .  S
C3626      F3632   1.385       .  S
C3633      C3634   1.411       .  A
C3633      C3638   1.419       .  A
C3633      H3640   1.084       .  S
C3634      C3635   1.434       .  A
C3635      C3636   1.427       .  A
C3635      C3642   1.519       .  S
C3636      C3637   1.411       .  A
C3636      H3641   1.082       .  S
C3637      C3638   1.431       .  A
C3638      C3639   1.511       .  S
C3639      F3643   1.384       .  S
C3639      F3644   1.367       .  S
C3639      F3645   1.383       .  S
C3642      F3646   1.381       .  S
C3642      F3647   1.383       .  S
C3642      F3648   1.385       .  S
C3649      C3650   1.411       .  A
C3649      C3654   1.421       .  A
C3649      H3656   1.081       .  S
C3650      C3651   1.434       .  A
C3651      C3652   1.420       .  A
C3651      C3658   1.530       .  S
C3652      C3653   1.407       .  A
C3652      H3657   1.076       .  S
C3653      C3654   1.426       .  A
C3654      C3655   1.516       .  S
C3655      F3659   1.385       .  S
C3655      F3660   1.380       .  S
C3655      F3661   1.376       .  S
C3658      F3662   1.379       .  S
C3658      F3663   1.383       .  S
C3658      F3664   1.382       .  S
C3665      C3666   1.394       .  A
C3665      C3670   1.385       .  A
C3665      H3672   1.085       .  S
C3666      C3667   1.407       .  A
C3667      C3668   1.406       .  A
C3667      C3674   1.502       .  S
C3668      C3669   1.404       .  A
C3668      H3673   1.080       .  S
C3669      C3670   1.422       .  A
C3670      C3671   1.518       .  S
C3671      F3675   1.385       .  S
C3671      F3676   1.380       .  S
C3671      F3677   1.378       .  S
C3674      F3678   1.373       .  S
C3674      F3679   1.382       .  S
C3674      F3680   1.381       .  S
C3681      C3682   1.404       .  A
C3681      C3686   1.396       .  A
C3681      H3688   1.073       .  S
C3682      C3683   1.416       .  A
C3683      C3684   1.410       .  A
C3683      C3690   1.514       .  S
C3684      C3685   1.412       .  A
C3684      H3689   1.075       .  S
C3685      C3686   1.420       .  A
C3686      C3687   1.523       .  S
C3687      F3691   1.381       .  S
C3687      F3692   1.384       .  S
C3687      F3693   1.378       .  S
C3690      F3694   1.378       .  S
C3690      F3695   1.377       .  S
C3690      F3696   1.384       .  S
C3697      C3698   1.404       .  A
C3697      C3702   1.407       .  A
C3697      H3704   1.083       .  S
C3698      C3699   1.419       .  A
C3699      C3700   1.383       .  A
C3699      C3706   1.517       .  S
C3700      C3701   1.393       .  A
C3700      H3705   1.083       .  S
C3701      C3702   1.416       .  A
C3702      C3703   1.517       .  S
C3703      F3707   1.385       .  S
C3703      F3708   1.382       .  S
C3703      F3709   1.382       .  S
C3706      F3710   1.377       .  S
C3706      F3711   1.383       .  S
C3706      F3712   1.381       .  S
C3713      C3714   1.409       .  A
C3713      C3718   1.419       .  A
C3713      H3720   1.071       .  S
C3714      C3715   1.424       .  A
C3715      C3716   1.421       .  A
C3715      C3722   1.517       .  S
C3716      C3717   1.419       .  A
C3716      H3721   1.083       .  S
C3717      C3718   1.427       .  A
C3718      C3719   1.518       .  S
C3719      F3723   1.385       .  S
C3719      F3724   1.383       .  S
C3719      F3725   1.382       .  S
C3722      F3726   1.384       .  S
C3722      F3727   1.376       .  S
C3722      F3728   1.380       .  S
C3729      C3730   1.418       .  A
C3729      C3734   1.419       .  A
C3729      H3736   1.080       .  S
C3730      C3731   1.425       .  A
C3731      C3732   1.426       .  A
C3731      C3738   1.515       .  S
C3732      C3733   1.416       .  A
C3732      H3737   1.082       .  S
C3733      C3734   1.430       .  A
C3734      C3735   1.535       .  S
C3735      F3739   1.385       .  S
C3735      F3740   1.368       .  S
C3735      F3741   1.377       .  S
C3738      F3742   1.383       .  S
C3738      F3743   1.382       .  S
C3738      F3744   1.385       .  S
C3745      C3746   1.405       .  A
C3745      C3750   1.421       .  A
C3745      H3752   1.084       .  S
C3746      C3747   1.427       .  A
C3747      C3748   1.418       .  A
C3747      C3754   1.524       .  S
C3748      C3749   1.413       .  A
C3748      H3753   1.066       .  S
C3749      C3750   1.439       .  A
C3750      C3751   1.509       .  S
C3751      F3755   1.383       .  S
C3751      F3756   1.357       .  S
C3751      F3757   1.385       .  S
C3754      F3758   1.384       .  S
C3754      F3759   1.383       .  S
C3754      F3760   1.385       .  S
C3761      C3762   1.418       .  A
C3761      C3766   1.424       .  A
C3761      H3768   1.083       .  S
C3762      C3763   1.428       .  A
C3763      C3764   1.418       .  A
C3763      C3770   1.518       .  S
C3764      C3765   1.411       .  A
C3764      H3769   1.079       .  S
C3765      C3766   1.432       .  A
C3766      C3767   1.531       .  S
C3767      F3771   1.377       .  S
C3767      F3772   1.373       .  S
C3767      F3773   1.381       .  S
C3770      F3774   1.382       .  S
C3770      F3775   1.383       .  S
C3770      F3776   1.385       .  S
C3777      C3778   1.405       .  A
C3777      C3782   1.393       .  A
C3777      H3784   1.080       .  S
C3778      C3779   1.396       .  A
C3779      C3780   1.390       .  A
C3779      C3786   1.492       .  S
C3780      C3781   1.399       .  A
C3780      H3785   1.084       .  S
C3781      C3782   1.411       .  A
C3782      C3783   1.523       .  S
C3783      F3787   1.382       .  S
C3783      F3788   1.382       .  S
C3783      F3789   1.385       .  S
C3786      F3790   1.377       .  S
C3786      F3791   1.383       .  S
C3786      F3792   1.376       .  S
C3793      C3794   1.391       .  A
C3793      C3798   1.399       .  A
C3793      H3800   1.083       .  S
C3794      C3795   1.416       .  A
C3795      C3796   1.386       .  A
C3795      C3802   1.511       .  S
C3796      C3797   1.396       .  A
C3796      H3801   1.087       .  S
C3797      C3798   1.409       .  A
C3798      C3799   1.492       .  S
C3799      F3803   1.375       .  S
C3799      F3804   1.381       .  S
C3799      F3805   1.379       .  S
C3802      F3806   1.376       .  S
C3802      F3807   1.381       .  S
C3802      F3808   1.383       .  S
C3809      C3810   1.393       .  A
C3809      C3814   1.402       .  A
C3809      H3816   1.084       .  S
C3810      C3811   1.426       .  A
C3811      C3812   1.386       .  A
C3811      C3818   1.525       .  S
C3812      C3813   1.392       .  A
C3812      H3817   1.084       .  S
C3813      C3814   1.427       .  A
C3814      C3815   1.519       .  S
C3815      F3819   1.385       .  S
C3815      F3820   1.383       .  S
C3815      F3821   1.383       .  S
C3818      F3822   1.383       .  S
C3818      F3823   1.379       .  S
C3818      F3824   1.380       .  S
C3825      C3826   1.396       .  A
C3825      C3830   1.395       .  A
C3825      H3832   1.086       .  S
C3826      C3827   1.402       .  A
C3827      C3828   1.391       .  A
C3827      C3834   1.493       .  S
C3828      C3829   1.395       .  A
C3828      H3833   1.084       .  S
C3829      C3830   1.421       .  A
C3830      C3831   1.518       .  S
C3831      F3835   1.384       .  S
C3831      F3836   1.382       .  S
C3831      F3837   1.383       .  S
C3834      F3838   1.381       .  S
C3834      F3839   1.379       .  S
C3834      F3840   1.379       .  S
