geometry optimzed in LAMMPS
_audit_creation_date              2020-12-01 
_audit_creation_method            'lammps2cif' 
_symmetry_space_group_name_H-M    'P1' 
_symmetry_Int_Tables_number       1 
_symmetry_cell_setting            triclinic 
loop_ 
_symmetry_equiv_pos_as_xyz 
  x,y,z 
_cell_length_a                    27.76441139 
_cell_length_b                    27.769126230407835 
_cell_length_c                    27.7632667360586 
_cell_angle_alpha                 90.00267581074013 
_cell_angle_beta                  89.99163648147173 
_cell_angle_gamma                 90.00031052524827 
loop_ 
_atom_site_label 
_atom_site_type_symbol 
_atom_site_fract_x 
_atom_site_fract_y 
_atom_site_fract_z 
_atom_site_charge 
O1          O  0.69651152  0.74342450  0.61479719    -0.83300
O2          O  0.61715963  0.72676025  0.67196080    -0.80400
C3          C  0.59249169  0.71033626  0.70630119     1.00100
O4          O  0.61166536  0.70080881  0.74650170    -0.80400
O5          O  0.66642803  0.62020214  0.72961209    -0.83000
C6          C  0.69938023  0.59460044  0.71191367     1.04700
O7          O  0.73961098  0.61265284  0.70045828    -0.75800
O8          O  0.72235750  0.66897382  0.62072464    -0.76000
C9          C  0.70574001  0.70307302  0.59589744     1.04600
O10         O  0.73934210  0.79693479  0.69240508    -0.83300
O11         O  0.65638428  0.78847717  0.74541720    -0.80400
C12         C  0.67198276  0.78144005  0.78758244     1.00200
O13         O  0.69120422  0.74202513  0.79898637    -0.80400
O14         O  0.74221723  0.65793597  0.78950968    -0.83000
C15         C  0.78468514  0.67201308  0.78114232     1.04600
O16         O  0.79581301  0.68997696  0.74104415    -0.75800
O17         O  0.78552429  0.74256507  0.65819658    -0.76000
C18         C  0.77868434  0.78498991  0.67331372     1.04600
Cr19       Cr  0.67936628  0.75974932  0.68309924     1.93700
Cr20       Cr  0.67985116  0.68221311  0.76196306     1.93200
Cr21       Cr  0.75674684  0.68055281  0.68216817     1.39100
O22         O  0.70527737  0.70737386  0.70899338    -1.21100
O23         O  0.61717669  0.22291674  0.67185514    -0.83300
O24         O  0.69653624  0.20627001  0.61472292    -0.80400
C25         C  0.70574684  0.24663339  0.59584128     1.00100
O26         O  0.72238791  0.28071865  0.62067250    -0.80400
O27         O  0.73963719  0.33703445  0.70040476    -0.83000
C28         C  0.69940168  0.35509357  0.71183599     1.04700
O29         O  0.66643276  0.32949368  0.72950206    -0.75800
O30         O  0.61165145  0.24890086  0.74638284    -0.76000
C31         C  0.59249488  0.23935771  0.70617693     1.04600
O32         O  0.65638850  0.16120589  0.74534165    -0.83300
O33         O  0.73935270  0.15274417  0.69233808    -0.80400
C34         C  0.77870252  0.16467926  0.67325775     1.00200
O35         O  0.78554929  0.20710456  0.65814239    -0.80400
O36         O  0.79580639  0.25970022  0.74099908    -0.83000
C37         C  0.78466657  0.27768475  0.78108594     1.04600
O38         O  0.74219605  0.29176698  0.78943715    -0.75800
O39         O  0.69116290  0.20769292  0.79891617    -0.76000
C40         C  0.67196337  0.16826518  0.78751557     1.04600
Cr41       Cr  0.67938030  0.18993333  0.68301976     1.93700
Cr42       Cr  0.75676579  0.26912707  0.68211336     1.93200
Cr43       Cr  0.67983424  0.26749188  0.76187145     1.39100
O44         O  0.70528366  0.24231254  0.70892019    -1.21100
O45         O  0.22042305  0.32897982  0.66470698    -0.83300
O46         O  0.20441770  0.24789210  0.60972347    -0.80400
C47         C  0.24475588  0.23684028  0.59157509     1.00100
O48         O  0.27822981  0.22033193  0.61726591    -0.80400
O49         O  0.33358239  0.20464618  0.69780206    -0.83000
C50         C  0.35262467  0.24496794  0.70698570     1.04700
O51         O  0.32770492  0.27954883  0.72249031    -0.75800
O52         O  0.24774618  0.33645092  0.73855642    -0.76000
C53         C  0.23690968  0.35467259  0.69824316     1.04600
O54         O  0.15886685  0.29164806  0.73940613    -0.83300
O55         O  0.14957312  0.20770945  0.68846598    -0.80400
C56         C  0.16099308  0.16767851  0.67060942     1.00200
O57         O  0.20333304  0.15993760  0.65582148    -0.80400
O58         O  0.25474567  0.15216720  0.73979430    -0.83000
C59         C  0.27405808  0.16429361  0.77894120     1.04600
O60         O  0.28923079  0.20671589  0.78544469    -0.75800
O61         O  0.20620573  0.25939347  0.79394540    -0.76000
C62         C  0.16654165  0.27783131  0.78212283     1.04600
Cr63       Cr  0.18745976  0.26705468  0.67755167     1.93700
Cr64       Cr  0.26547522  0.18849906  0.67957900     1.93200
Cr65       Cr  0.26570610  0.26851090  0.75597501     1.39100
O66         O  0.23963166  0.24151748  0.70423893    -1.21100
O67         O  0.20439833  0.70171465  0.60972677    -0.83300
O68         O  0.22039362  0.62064855  0.66473522    -0.80400
C69         C  0.23686748  0.59496332  0.69827989     1.00100
O70         O  0.24768365  0.61319328  0.73859763    -0.80400
O71         O  0.32767878  0.67005505  0.72254436    -0.83000
C72         C  0.35261602  0.70461778  0.70702676     1.04700
O73         O  0.33358873  0.74493225  0.69778579    -0.75800
O74         O  0.27822338  0.72923874  0.61725429    -0.76000
C75         C  0.24473781  0.71274397  0.59156807     1.04600
O76         O  0.14958000  0.74193361  0.68846655    -0.83300
O77         O  0.15882969  0.65801693  0.73942856    -0.80400
C78         C  0.16648690  0.67186946  0.78213938     1.00200
O79         O  0.20615653  0.69030258  0.79395878    -0.80400
O80         O  0.28922581  0.74292906  0.78544940    -0.83000
C81         C  0.27410528  0.78536350  0.77891432     1.04600
O82         O  0.25480068  0.79748085  0.73976140    -0.75800
O83         O  0.20335307  0.78968208  0.65580774    -0.76000
C84         C  0.16100979  0.78195183  0.67059511     1.04600
Cr85       Cr  0.18744229  0.68257995  0.67756555     1.93700
Cr86       Cr  0.26566958  0.68113469  0.75600194     1.93200
Cr87       Cr  0.26549110  0.76110589  0.67956116     1.39100
O88         O  0.23962145  0.70811298  0.70424705    -1.21100
O89         O  0.33125655  0.66975802  0.21900157    -0.83300
O90         O  0.25139498  0.61298771  0.20429283    -0.80400
C91         C  0.24194696  0.59484732  0.24500216     1.00100
O92         O  0.22580339  0.62049360  0.27876064    -0.80400
O93         O  0.20914879  0.70158213  0.33362389    -0.83000
C94         C  0.24938848  0.71287554  0.35168352     1.04700
O95         O  0.28290882  0.72912256  0.32582037    -0.75800
O96         O  0.33779547  0.74434355  0.24457014    -0.76000
C97         C  0.35644490  0.70392506  0.23488979     1.04600
O98         O  0.29198614  0.74279129  0.15673483    -0.83300
O99         O  0.20872477  0.69025491  0.14970974    -0.80400
C100        C  0.16941036  0.67151227  0.16219803     1.00200
O101        O  0.16286091  0.65699498  0.20483797    -0.76000
O102        O  0.15362687  0.74124208  0.25569191    -0.83000
C103        C  0.16523912  0.78126488  0.27355019     1.04600
O104        O  0.20784290  0.78924295  0.28742543    -0.75800
O105        O  0.25856662  0.79724267  0.20323173    -0.76000
C106        C  0.27691707  0.78518891  0.16361009     1.04600
Cr107      Cr  0.26889059  0.68098077  0.18656641     1.93700
Cr108      Cr  0.19198088  0.68205477  0.26616021     1.93200
Cr109      Cr  0.26982249  0.76077293  0.26332063     1.39100
O110        O  0.24368429  0.70782937  0.23882522    -1.21100
O111        O  0.61451668  0.74194495  0.25084439    -0.83300
O112        O  0.67008005  0.72506038  0.33133801    -0.80400
C113        C  0.70395886  0.70844098  0.35649667     1.00100
O114        O  0.74464105  0.69942771  0.33806732    -0.80400
O115        O  0.72973498  0.61975696  0.28162421    -0.83000
C116        C  0.71327355  0.59453516  0.24779231     1.04700
O117        O  0.70293956  0.61306578  0.20751543    -0.75800
O118        O  0.62202867  0.66788267  0.22417744    -0.76000
C119        C  0.59629560  0.70160799  0.24015598     1.04600
O120        O  0.69241481  0.79698146  0.21043557    -0.83300
O121        O  0.74385711  0.78805514  0.29445204    -0.80400
C122        C  0.78644222  0.78148256  0.27972323     1.00200
O123        O  0.79860610  0.74235047  0.26042493    -0.80400
O124        O  0.79104410  0.65931159  0.20758713    -0.83000
C125        C  0.78333064  0.67413835  0.16520645     1.04600
O126        O  0.74333441  0.69204284  0.15374104    -0.75800
O127        O  0.65943150  0.74278739  0.16321768    -0.76000
C128        C  0.67403692  0.78522151  0.17069116     1.04600
Cr129      Cr  0.68225253  0.75895182  0.26979341     1.93700
Cr130      Cr  0.76187919  0.68214386  0.26992692     1.93200
Cr131      Cr  0.68391658  0.68089869  0.19133904     1.39100
O132        O  0.70926566  0.70722201  0.24377218    -1.21100
O133        O  0.25143676  0.33669073  0.20430918    -0.83300
O134        O  0.33126385  0.27988306  0.21907261    -0.80400
C135        C  0.35643096  0.24569401  0.23494129     1.00100
O136        O  0.33776225  0.20527437  0.24457345    -0.80400
O137        O  0.28290986  0.22052366  0.32583752    -0.83000
C138        C  0.24940986  0.23680433  0.35170723     1.04700
O139        O  0.20918012  0.24815200  0.33365936    -0.75800
O140        O  0.22583519  0.32921750  0.27877373    -0.76000
C141        C  0.24197995  0.35485028  0.24500873     1.04600
O142        O  0.20875924  0.25942366  0.14974426    -0.83300
O143        O  0.29199005  0.20685571  0.15678282    -0.80400
C144        C  0.27686703  0.16447317  0.16363573     1.00200
O145        O  0.25847939  0.15243756  0.20324453    -0.80400
O146        O  0.20780912  0.16046097  0.28747439    -0.83000
C147        C  0.16520238  0.16846263  0.27363256     1.04600
O148        O  0.15360339  0.20848455  0.25576783    -0.75800
O149        O  0.16288321  0.29269010  0.20486767    -0.76000
C150        C  0.16944204  0.27815893  0.16223233     1.04600
Cr151      Cr  0.26891254  0.26868360  0.18660802     1.93700
Cr152      Cr  0.26978634  0.18888960  0.26333991     1.93200
Cr153      Cr  0.19199436  0.26765864  0.26619861     1.39100
O154        O  0.24368063  0.24185256  0.23886074    -1.21100
O155        O  0.62198200  0.28176393  0.22421547    -0.83300
O156        O  0.70287252  0.33660228  0.20750806    -0.80400
C157        C  0.71321479  0.35514313  0.24777906     1.00100
O158        O  0.72967978  0.32992928  0.28161108    -0.80400
O159        O  0.74458509  0.25028599  0.33806535    -0.83000
C160        C  0.70389757  0.24127521  0.35648357     1.04700
O161        O  0.67003600  0.22461618  0.33132837    -0.75800
O162        O  0.61449540  0.20768804  0.25084382    -0.76000
C163        C  0.59626311  0.24802586  0.24018743     1.04600
O164        O  0.65937661  0.20686375  0.16324617    -0.83300
O165        O  0.74326762  0.25762601  0.15373617    -0.80400
C166        C  0.78326918  0.27552363  0.16519889     1.00200
O167        O  0.79099148  0.29035574  0.20757784    -0.80400
O168        O  0.79858093  0.20734652  0.26044510    -0.83000
C169        C  0.78643062  0.16822132  0.27976165     1.04600
O170        O  0.74384211  0.16163600  0.29447355    -0.75800
O171        O  0.69241164  0.15268568  0.21044329    -0.76000
C172        C  0.67400244  0.16443663  0.17071214     1.04600
Cr173      Cr  0.68385825  0.26876154  0.19135035     1.93700
Cr174      Cr  0.76183373  0.26754575  0.26992545     1.93200
Cr175      Cr  0.68223251  0.19071303  0.26979807     1.39100
O176        O  0.70922796  0.24244828  0.24377502    -1.21100
N177        N  0.90165500  0.97485975  0.29637166    -0.34600
N178        N  0.97595745  0.90063821  0.29191251    -0.55100
N179        N  0.05045483  0.97485657  0.29238137    -0.34600
N180        N  0.97595444  0.04907922  0.29209314    -0.55100
C181        C  0.87425192  0.93557476  0.28716354     0.29000
C182        C  0.87425338  0.01416026  0.28722616     0.29000
C183        C  0.07796563  0.93551300  0.28373898     0.29000
C184        C  0.07796233  0.01421890  0.28381772     0.29000
C185        C  0.93702443  0.87197870  0.29777196     0.37600
C186        C  0.01509293  0.87189043  0.29554937     0.37600
C187        C  0.93702276  0.07773308  0.29798571     0.37600
C188        C  0.01509081  0.07781717  0.29578426     0.37600
C189        C  0.82857935  0.95012422  0.27303323    -0.19900
C190        C  0.82858083  0.99963268  0.27307045    -0.19900
C191        C  0.12399726  0.95010428  0.27078990    -0.19900
C192        C  0.12399500  0.99965543  0.27083830    -0.19900
C193        C  0.95149616  0.82472239  0.30494064    -0.20900
C194        C  0.00088831  0.82465340  0.30347649    -0.20900
C195        C  0.95149638  0.12497521  0.30524667    -0.20900
C196        C  0.00088905  0.12504162  0.30379786    -0.20900
C197        C  0.88867459  0.88698426  0.29256519    -0.16300
C198        C  0.88867672  0.06274340  0.29270428    -0.16300
C199        C  0.06325827  0.06287491  0.28865910    -0.16300
C200        C  0.06326647  0.88684762  0.28848861    -0.16300
H201        H  0.79834711  0.92743950  0.26348905     0.16600
H202        H  0.79834897  0.02233164  0.26356205     0.16600
H203        H  0.15450935  0.92743674  0.26212450     0.16600
H204        H  0.15450589  0.02234135  0.26221859     0.16600
H205        H  0.92882886  0.79337311  0.30973633     0.14900
H206        H  0.02369099  0.79324365  0.30707876     0.14900
H207        H  0.92883005  0.15631921  0.31008305     0.14900
H208        H  0.02369375  0.15644444  0.30745302     0.14900
H209        H  0.93537370  0.97484378  0.31245684     0.28200
H210        H  0.01625416  0.97484096  0.30723562     0.28200
N211        N  0.04498429  0.97479650  0.65971926    -0.34600
N212        N  0.97114846  0.90086869  0.66088828    -0.55100
N213        N  0.89732807  0.97480874  0.65970740    -0.34600
N214        N  0.97114902  0.04873157  0.66090018    -0.55100
C215        C  0.07148430  0.93551531  0.67112167     0.29000
C216        C  0.07148785  0.01407502  0.67112868     0.29000
C217        C  0.87074578  0.93555432  0.67097326     0.29000
C218        C  0.87074336  0.01406464  0.67097023     0.29000
C219        C  0.01015558  0.87288695  0.65298537     0.37600
C220        C  0.93211822  0.87287426  0.65313200     0.37600
C221        C  0.01016191  0.07670593  0.65299690     0.37600
C222        C  0.93212342  0.07673237  0.65313834     0.37600
C223        C  0.11551038  0.94998444  0.68982024    -0.19900
C224        C  0.11551282  0.99960073  0.68982406    -0.19900
C225        C  0.82654623  0.95002420  0.68927820    -0.19900
C226        C  0.82654468  0.99959653  0.68927550    -0.19900
C227        C  0.99586484  0.82678282  0.64015741    -0.20900
C228        C  0.94634878  0.82677184  0.64027819    -0.20900
C229        C  0.99587869  0.12280899  0.64016373    -0.20900
C230        C  0.94636344  0.12282873  0.64028160    -0.20900
C231        C  0.05806959  0.88724654  0.66200583    -0.16300
C232        C  0.05807503  0.06234629  0.66202365    -0.16300
C233        C  0.88423359  0.06234834  0.66219449    -0.16300
C234        C  0.88423423  0.88727022  0.66219653    -0.16300
H235        H  0.14479953  0.92718185  0.70173445     0.16600
H236        H  0.14480420  0.02239991  0.70174149     0.16600
H237        H  0.79714132  0.92725409  0.70097446     0.16600
H238        H  0.79713946  0.02236774  0.70097001     0.16600
H239        H  0.01869805  0.79608728  0.63267504     0.14900
H240        H  0.92347390  0.79608676  0.63288319     0.14900
H241        H  0.01871702  0.15349956  0.63267899     0.14900
H242        H  0.92349504  0.15351618  0.63288130     0.14900
H243        H  0.01317163  0.97479870  0.63997909     0.28200
H244        H  0.92931842  0.97480625  0.64025979     0.28200
N245        N  0.29117055  0.97483432  0.89718215    -0.34600
N246        N  0.28980677  0.90094915  0.97104058    -0.55100
N247        N  0.29051875  0.97482452  0.04482874    -0.34600
N248        N  0.28974989  0.04870689  0.97106762    -0.55100
C249        C  0.27975865  0.93560181  0.87064665     0.29000
C250        C  0.27971592  0.01406439  0.87066488     0.29000
C251        C  0.27901172  0.93556556  0.07130229     0.29000
C252        C  0.27899734  0.01407390  0.07131534     0.29000
C253        C  0.29743440  0.87290962  0.93203852     0.37600
C254        C  0.29725905  0.87288622  0.01005916     0.37600
C255        C  0.29738242  0.07674798  0.93207105     0.37600
C256        C  0.29723421  0.07675922  0.01009022     0.37600
C257        C  0.26135800  0.95006130  0.82648579    -0.19900
C258        C  0.26132934  0.99960152  0.82649806    -0.19900
C259        C  0.26029912  0.95002747  0.11533342    -0.19900
C260        C  0.26028991  0.99959655  0.11534141    -0.19900
C261        C  0.30991079  0.82670779  0.94629018    -0.20900
C262        C  0.30981914  0.82669689  0.99581905    -0.20900
C263        C  0.30989698  0.12293850  0.94632959    -0.20900
C264        C  0.30982396  0.12294133  0.99585859    -0.20900
C265        C  0.28817625  0.88730507  0.88421639    -0.16300
C266        C  0.28810135  0.06236362  0.88424993    -0.16300
C267        C  0.28783640  0.06236712  0.05790187    -0.16300
C268        C  0.28786481  0.88727737  0.05787458    -0.16300
H269        H  0.24950297  0.92730953  0.79713132     0.16600
H270        H  0.24945109  0.02235146  0.79715383     0.16600
H271        H  0.24832436  0.92725305  0.14462251     0.16600
H272        H  0.24830769  0.02236065  0.14463749     0.16600
H273        H  0.31705725  0.79595770  0.92341845     0.14900
H274        H  0.31687375  0.79592861  0.01868837     0.14900
H275        H  0.31706167  0.15368557  0.92346235     0.14900
H276        H  0.31691207  0.15369935  0.01873423     0.14900
H277        H  0.31060708  0.97483900  0.92917541     0.28200
H278        H  0.31027050  0.97483117  0.01302317     0.28200
N279        N  0.90111304  0.29015145  0.97393678    -0.34600
N280        N  0.97513578  0.29063039  0.89948052    -0.55100
N281        N  0.04945997  0.29286152  0.97348154    -0.34600
N282        N  0.97548285  0.28793812  0.04799787    -0.55100
C283        C  0.87379064  0.28134981  0.93449122     0.29000
C284        C  0.87395919  0.27992546  0.01315563     0.29000
C285        C  0.07678922  0.28424868  0.93401378     0.29000
C286        C  0.07702459  0.28349190  0.01257133     0.29000
C287        C  0.93596534  0.29634414  0.87114777     0.37600
C288        C  0.01403469  0.29723811  0.87094706     0.37600
C289        C  0.93642845  0.29235314  0.07676928     0.37600
C290        C  0.01452413  0.29399209  0.07646738     0.37600
C291        C  0.82841372  0.26610885  0.94887439    -0.19900
C292        C  0.82851451  0.26522387  0.99842917    -0.19900
C293        C  0.12257236  0.27013470  0.94825195    -0.19900
C294        C  0.12273694  0.26970195  0.99775673    -0.19900
C295        C  0.95008272  0.30642040  0.82429123    -0.20900
C296        C  0.99952156  0.30695386  0.82416376    -0.20900
C297        C  0.95076989  0.30075528  0.12388120    -0.20900
C298        C  0.00021729  0.30180470  0.12368518    -0.20900
C299        C  0.88788515  0.28869227  0.88599700    -0.16300
C300        C  0.88822069  0.28560002  0.06181659    -0.16300
C301        C  0.06281503  0.28891590  0.06120207    -0.16300
C302        C  0.06230284  0.29067504  0.88558099    -0.16300
H303        H  0.79821655  0.25676738  0.92605773     0.16600
H304        H  0.79841295  0.25505551  0.02102653     0.16600
H305        H  0.15284917  0.26118135  0.92537630     0.16600
H306        H  0.15315322  0.26029853  0.02025517     0.16600
H307        H  0.92718403  0.31189711  0.79322219     0.14900
H308        H  0.02218252  0.31293749  0.79300505     0.14900
H309        H  0.92801931  0.30499112  0.15526008     0.14900
H310        H  0.02302559  0.30696278  0.15487872     0.14900
H311        H  0.93446049  0.30695012  0.97416995     0.28200
H312        H  0.01572354  0.30888956  0.97381674     0.28200
N313        N  0.65426710  0.97487253  0.90287518    -0.34600
N314        N  0.65909630  0.04934514  0.97737236    -0.55100
N315        N  0.65894011  0.97484057  0.05165262    -0.34600
N316        N  0.65910539  0.90037009  0.97737493    -0.55100
C317        C  0.66284373  0.01420984  0.87527975     0.29000
C318        C  0.66283491  0.93552965  0.87528376     0.29000
C319        C  0.66516021  0.01413604  0.07977385     0.29000
C320        C  0.66518702  0.93554346  0.07976655     0.29000
C321        C  0.65512301  0.07825393  0.93841796     0.37600
C322        C  0.65702350  0.07822586  0.01654002     0.37600
C323        C  0.65501975  0.87148842  0.93841262     0.37600
C324        C  0.65696872  0.87148019  0.01653018     0.37600
C325        C  0.67556815  0.99961239  0.82919773    -0.19900
C326        C  0.67556452  0.95011636  0.82920070    -0.19900
C327        C  0.67442288  0.99955987  0.12670259    -0.19900
C328        C  0.67444452  0.95011764  0.12669663    -0.19900
C329        C  0.65085509  0.12587742  0.95292441    -0.20900
C330        C  0.65212034  0.12585852  0.00232808    -0.20900
C331        C  0.65060380  0.82387314  0.95290117    -0.20900
C332        C  0.65190423  0.82386908  0.00230374    -0.20900
C333        C  0.65906962  0.06295695  0.88999628    -0.16300
C334        C  0.65902270  0.88678694  0.88999995    -0.16300
C335        C  0.66179672  0.88688384  0.06487601    -0.16300
C336        C  0.66177711  0.06279648  0.06488666    -0.16300
H337        H  0.68453920  0.02225599  0.79875829     0.16600
H338        H  0.68452694  0.92746534  0.79876229     0.16600
H339        H  0.68057846  0.02214798  0.15787217     0.16600
H340        H  0.68061320  0.92752841  0.15786076     0.16600
H341        H  0.64802316  0.15748659  0.93028870     0.14900
H342        H  0.65025636  0.15741964  0.02513512     0.14900
H343        H  0.64764843  0.79228216  0.93025297     0.14900
H344        H  0.64994444  0.79230842  0.02510038     0.14900
H345        H  0.63934566  0.97487239  0.93708523     0.28200
H346        H  0.64758464  0.97484591  0.01625206     0.28200
N347        N  0.90113667  0.65955179  0.97396047    -0.34600
N348        N  0.97547844  0.66156469  0.04797421    -0.55100
N349        N  0.04940585  0.65681322  0.97347837    -0.34600
N350        N  0.97510786  0.65896729  0.89953669    -0.55100
C351        C  0.87409628  0.67006507  0.01317962     0.29000
C352        C  0.87391293  0.66867086  0.93452266     0.29000
C353        C  0.07686974  0.66648821  0.01256473     0.29000
C354        C  0.07662020  0.66578869  0.93401317     0.29000
C355        C  0.93642457  0.65684896  0.07669173     0.37600
C356        C  0.01451285  0.65518505  0.07637561     0.37600
C357        C  0.93593178  0.65297997  0.87127413     0.37600
C358        C  0.01399503  0.65209349  0.87105474     0.37600
C359        C  0.82883911  0.68534015  0.99846590    -0.19900
C360        C  0.82872877  0.68447268  0.94890331    -0.19900
C361        C  0.12238476  0.68091057  0.99775541    -0.19900
C362        C  0.12221055  0.68051397  0.94824313    -0.19900
C363        C  0.95075223  0.64787330  0.12370010    -0.20900
C364        C  0.00020758  0.64680683  0.12349456    -0.20900
C365        C  0.95002712  0.64241313  0.82451925    -0.20900
C366        C  0.99947470  0.64188567  0.82437949    -0.20900
C367        C  0.88826327  0.66400615  0.06181189    -0.16300
C368        C  0.88789996  0.66099141  0.88605791    -0.16300
C369        C  0.06222690  0.65902477  0.88560616    -0.16300
C370        C  0.06276885  0.66065759  0.06117072    -0.16300
H371        H  0.79885898  0.69583232  0.02107804     0.16600
H372        H  0.79864487  0.69415618  0.92608013     0.16600
H373        H  0.15268101  0.69067247  0.02026429     0.16600
H374        H  0.15235900  0.68986027  0.92535582     0.16600
H375        H  0.92798908  0.64331907  0.15502496     0.14900
H376        H  0.02302289  0.64131777  0.15462580     0.14900
H377        H  0.92710910  0.63666027  0.79351377     0.14900
H378        H  0.02213621  0.63563205  0.79327386     0.14900
H379        H  0.93426617  0.64229886  0.97418731     0.28200
H380        H  0.01589077  0.64029454  0.97381107     0.28200
C381        C  0.66503506  0.09941739  0.10198404    -0.11200
C382        C  0.66872646  0.12904656  0.13350201    -0.12800
C383        C  0.85121737  0.28274557  0.09875550    -0.11200
C384        C  0.82033487  0.27990933  0.12928332    -0.12800
C385        C  0.85183543  0.09976672  0.28974411    -0.11200
C386        C  0.82172056  0.13088919  0.28589509    -0.12800
C387        C  0.40752371  0.25183398  0.24010612    -0.16500
C388        C  0.45076318  0.25496481  0.24292648     0.07600
C389        C  0.50162209  0.25600173  0.24431652     0.09400
C390        C  0.54502198  0.25415034  0.24362367    -0.17300
C391        C  0.13170206  0.28364705  0.12737599    -0.11200
C392        C  0.10009455  0.28677547  0.09774351    -0.12800
C393        C  0.28164964  0.12923502  0.12608347    -0.11200
C394        C  0.28490348  0.09917645  0.09485992    -0.12800
C395        C  0.09967119  0.10015448  0.28396736    -0.11200
C396        C  0.12939986  0.13155200  0.27937104    -0.12800
C397        C  0.70837518  0.40617585  0.25402620    -0.16500
C398        C  0.70627987  0.44943651  0.25670116     0.07600
C399        C  0.70629969  0.50024483  0.25670995     0.09400
C400        C  0.70842198  0.54350460  0.25404490    -0.17300
C401        C  0.85127148  0.66688263  0.09875655    -0.11200
C402        C  0.82039600  0.66973526  0.12929064    -0.12800
C403        C  0.66507885  0.85024790  0.10196086    -0.11200
C404        C  0.66877346  0.82061172  0.13347411    -0.12800
C405        C  0.82171320  0.81883898  0.28581234    -0.11200
C406        C  0.85182274  0.84997088  0.28962383    -0.12800
C407        C  0.24721534  0.54371879  0.25169473    -0.16500
C408        C  0.24947032  0.50034979  0.25435937     0.07600
C409        C  0.24947971  0.44935357  0.25435306     0.09400
C410        C  0.24723926  0.40598346  0.25168520    -0.17300
C411        C  0.54505009  0.69546779  0.24356423    -0.16500
C412        C  0.50164796  0.69359924  0.24423593     0.07600
C413        C  0.45078471  0.69462498  0.24283802     0.09400
C414        C  0.40754215  0.69776105  0.24002870    -0.17300
C415        C  0.13166613  0.66599197  0.12733877    -0.11200
C416        C  0.10005288  0.66282760  0.09770981    -0.12800
C417        C  0.28495076  0.85046942  0.09482954    -0.11200
C418        C  0.28170570  0.82042005  0.12605832    -0.12800
C419        C  0.09969947  0.84958309  0.28380609    -0.11200
C420        C  0.12944662  0.81819569  0.27924563    -0.12800
C421        C  0.25566631  0.70938826  0.40290820    -0.16500
C422        C  0.25719303  0.70779414  0.44630319     0.07600
C423        C  0.25541835  0.70747029  0.49717214     0.09400
C424        C  0.25154775  0.70878860  0.54043373    -0.17300
C425        C  0.12968298  0.66576313  0.81797687    -0.11200
C426        C  0.09894113  0.66189607  0.84847477    -0.12800
C427        C  0.09500433  0.85029522  0.66402365    -0.11200
C428        C  0.12525315  0.81914152  0.66640522    -0.12800
C429        C  0.28012582  0.82053886  0.81626054    -0.11200
C430        C  0.28446845  0.85046523  0.84742986    -0.12800
C431        C  0.25569595  0.24026139  0.40292910    -0.16500
C432        C  0.25722648  0.24182386  0.44632286     0.07600
C433        C  0.25545203  0.24211918  0.49718814     0.09400
C434        C  0.25157717  0.24079051  0.54044646    -0.17300
C435        C  0.24109832  0.40592227  0.69176442    -0.16500
C436        C  0.24275603  0.44932287  0.68921520     0.07600
C437        C  0.24274399  0.50031579  0.68923036     0.09400
C438        C  0.24106875  0.54371464  0.69179977    -0.17300
C439        C  0.12523669  0.13048026  0.66643835    -0.11200
C440        C  0.09500610  0.09930543  0.66405666    -0.12800
C441        C  0.28003933  0.12913664  0.81630804    -0.11200
C442        C  0.28437157  0.09921128  0.84747708    -0.12800
C443        C  0.12975998  0.28397454  0.81796289    -0.11200
C444        C  0.09902715  0.28784273  0.84846249    -0.12800
C445        C  0.69943782  0.25247741  0.54480507    -0.16500
C446        C  0.69609310  0.25381332  0.50148943     0.07600
C447        C  0.69512201  0.25189676  0.45061476     0.09400
C448        C  0.69731448  0.24796440  0.40738295    -0.17300
C449        C  0.40387115  0.25017652  0.70203058    -0.16500
C450        C  0.44725324  0.25107583  0.69954402     0.07600
C451        C  0.49812332  0.24899762  0.69886941     0.09400
C452        C  0.54139212  0.24532046  0.70065007    -0.17300
C453        C  0.66265998  0.09997169  0.85319173    -0.11200
C454        C  0.66661938  0.13115706  0.82315878    -0.12800
C455        C  0.81607475  0.12931023  0.66793144    -0.11200
C456        C  0.84724020  0.09917456  0.66473020    -0.12800
C457        C  0.82083833  0.28279033  0.81777960    -0.11200
C458        C  0.85105856  0.28599908  0.84890471    -0.12800
C459        C  0.69740281  0.70179917  0.40740948    -0.16500
C460        C  0.69522333  0.69788942  0.45064620     0.07600
C461        C  0.69617865  0.69596302  0.50152462     0.09400
C462        C  0.69948481  0.69726553  0.54484663    -0.17300
C463        C  0.40386749  0.69940666  0.70212792    -0.16500
C464        C  0.44725243  0.69853785  0.69968201     0.07600
C465        C  0.49812075  0.70066187  0.69902865     0.09400
C466        C  0.54138748  0.70436577  0.70080081    -0.17300
C467        C  0.69225703  0.54359264  0.70694470    -0.16500
C468        C  0.68919795  0.50030075  0.70479492     0.07600
C469        C  0.68921327  0.44939715  0.70477126     0.09400
C470        C  0.69228869  0.40610478  0.70688657    -0.17300
C471        C  0.66263769  0.84976650  0.85320960    -0.11200
C472        C  0.66662801  0.81855874  0.82320690    -0.12800
C473        C  0.85107958  0.66371638  0.84896505    -0.11200
C474        C  0.82086472  0.66692638  0.81783379    -0.12800
C475        C  0.81605922  0.82034306  0.66797122    -0.11200
C476        C  0.84723886  0.85045583  0.66474786    -0.12800
loop_ 
_geom_bond_atom_site_label_1 
_geom_bond_atom_site_label_2 
_geom_bond_distance 
_geom_bond_site_symmetry_2 
_ccdc_geom_bond_type 
O1          Cr19   2.007       .  S
O1            C9   1.264       .  A
O2          Cr19   1.979       .  S
O2            C3   1.259       .  A
C3            O4   1.265       .  A
C3          C466   1.437       .  S
O4          Cr20   2.009       .  S
O5          Cr20   1.978       .  S
O5            C6   1.258       .  A
C6            O7   1.265       .  A
C6          C467   1.437       .  S
O7          Cr21   2.010       .  S
O8          Cr21   1.981       .  S
O8            C9   1.259       .  A
C9          C462   1.437       .  S
O10         Cr19   1.976       .  S
O10          C18   1.259       .  A
O11         Cr19   2.009       .  S
O11          C12   1.263       .  A
C12          O13   1.258       .  A
C12         C472   1.436       .  S
O13         Cr20   1.979       .  S
O14         Cr20   2.010       .  S
O14          C15   1.264       .  A
C15          O16   1.258       .  A
C15         C474   1.438       .  S
O16         Cr21   1.979       .  S
O17         Cr21   2.012       .  S
O17          C18   1.265       .  A
C18         C475   1.436       .  S
Cr19         O22   1.775       .  S
Cr20         O22   1.775       .  S
Cr21         O22   1.775       .  S
O23         Cr41   1.979       .  S
O23          C31   1.259       .  A
O24         Cr41   2.007       .  S
O24          C25   1.264       .  A
C25          O26   1.259       .  A
C25         C445   1.437       .  S
O26         Cr42   1.981       .  S
O27         Cr42   2.010       .  S
O27          C28   1.265       .  A
C28          O29   1.258       .  A
C28         C470   1.437       .  S
O29         Cr43   1.978       .  S
O30         Cr43   2.009       .  S
O30          C31   1.265       .  A
C31         C452   1.437       .  S
O32         Cr41   2.009       .  S
O32          C40   1.264       .  A
O33         Cr41   1.976       .  S
O33          C34   1.259       .  A
C34          O35   1.265       .  A
C34         C455   1.436       .  S
O35         Cr42   2.012       .  S
O36         Cr42   1.979       .  S
O36          C37   1.258       .  A
C37          O38   1.264       .  A
C37         C457   1.438       .  S
O38         Cr43   2.010       .  S
O39         Cr43   1.978       .  S
O39          C40   1.258       .  A
C40         C454   1.436       .  S
Cr41         O44   1.775       .  S
Cr42         O44   1.775       .  S
Cr43         O44   1.775       .  S
O45         Cr63   1.980       .  S
O45          C53   1.259       .  A
O46         Cr63   2.013       .  S
O46          C47   1.266       .  A
C47          O48   1.258       .  A
C47         C434   1.436       .  S
O48         Cr64   1.975       .  S
O49         Cr64   2.008       .  S
O49          C50   1.264       .  A
C50          O51   1.259       .  A
C50         C449   1.437       .  S
O51         Cr65   1.980       .  S
O52         Cr65   2.010       .  S
O52          C53   1.265       .  A
C53         C435   1.439       .  S
O54         Cr63   2.011       .  S
O54          C62   1.265       .  A
O55         Cr63   1.978       .  S
O55          C56   1.258       .  A
C56          O57   1.264       .  A
C56         C439   1.437       .  S
O57         Cr64   2.010       .  S
O58         Cr64   1.975       .  S
O58          C59   1.258       .  A
C59          O60   1.264       .  A
C59         C441   1.434       .  S
O60         Cr65   2.010       .  S
O61         Cr65   1.976       .  S
O61          C62   1.258       .  A
C62         C443   1.436       .  S
Cr63         O66   1.775       .  S
Cr64         O66   1.775       .  S
Cr65         O66   1.775       .  S
O67         Cr85   2.013       .  S
O67          C75   1.266       .  A
O68         Cr85   1.980       .  S
O68          C69   1.259       .  A
C69          O70   1.265       .  A
C69         C438   1.439       .  S
O70         Cr86   2.011       .  S
O71         Cr86   1.980       .  S
O71          C72   1.259       .  A
C72          O73   1.264       .  A
C72         C463   1.437       .  S
O73         Cr87   2.008       .  S
O74         Cr87   1.975       .  S
O74          C75   1.258       .  A
C75         C424   1.436       .  S
O76         Cr85   1.978       .  S
O76          C84   1.258       .  A
O77         Cr85   2.011       .  S
O77          C78   1.265       .  A
C78          O79   1.258       .  A
C78         C425   1.436       .  S
O79         Cr86   1.976       .  S
O80         Cr86   2.010       .  S
O80          C81   1.264       .  A
C81          O82   1.258       .  A
C81         C429   1.434       .  S
O82         Cr87   1.975       .  S
O83         Cr87   2.010       .  S
O83          C84   1.264       .  A
C84         C428   1.437       .  S
Cr85         O88   1.775       .  S
Cr86         O88   1.775       .  S
Cr87         O88   1.775       .  S
O89        Cr107   1.977       .  S
O89          C97   1.259       .  A
O90        Cr107   2.011       .  S
O90          C91   1.265       .  A
C91          O92   1.259       .  A
C91         C407   1.439       .  S
O92        Cr108   1.982       .  S
O93        Cr108   2.007       .  S
O93          C94   1.264       .  A
C94          O95   1.259       .  A
C94         C421   1.436       .  S
O95        Cr109   1.979       .  S
O96        Cr109   2.010       .  S
O96          C97   1.265       .  A
C97         C414   1.436       .  S
O98        Cr107   2.011       .  S
O98         C106   1.264       .  A
O99        Cr107   1.976       .  S
O99         C100   1.258       .  A
C100        O101   1.264       .  A
C100        C415   1.435       .  S
O101       Cr108   2.009       .  S
O102       Cr108   1.980       .  S
O102        C103   1.259       .  A
C103        O104   1.264       .  A
C103        C420   1.437       .  S
O104       Cr109   2.008       .  S
O105       Cr109   1.977       .  S
O105        C106   1.258       .  A
C106        C418   1.436       .  S
Cr107       O110   1.775       .  S
Cr108       O110   1.774       .  S
Cr109       O110   1.775       .  S
O111       Cr129   2.009       .  S
O111        C119   1.264       .  A
O112       Cr129   1.980       .  S
O112        C113   1.259       .  A
C113        O114   1.265       .  A
C113        C459   1.437       .  S
O114       Cr130   2.009       .  S
O115       Cr130   1.976       .  S
O115        C116   1.258       .  A
C116        O117   1.264       .  A
C116        C400   1.434       .  S
O117       Cr131   2.007       .  S
O118       Cr131   1.978       .  S
O118        C119   1.259       .  A
C119        C411   1.436       .  S
O120       Cr129   1.978       .  S
O120        C128   1.259       .  A
O121       Cr129   2.012       .  S
O121        C122   1.264       .  A
C122        O123   1.258       .  A
C122        C405   1.437       .  S
O123       Cr130   1.976       .  S
O124       Cr130   2.013       .  S
O124        C125   1.265       .  A
C125        O126   1.258       .  A
C125        C402   1.438       .  S
O126       Cr131   1.976       .  S
O127       Cr131   2.006       .  S
O127        C128   1.263       .  A
C128        C404   1.434       .  S
Cr129       O132   1.774       .  S
Cr130       O132   1.774       .  S
Cr131       O132   1.775       .  S
O133       Cr151   2.011       .  S
O133        C141   1.265       .  A
O134       Cr151   1.976       .  S
O134        C135   1.259       .  A
C135        O136   1.265       .  A
C135        C387   1.436       .  S
O136       Cr152   2.010       .  S
O137       Cr152   1.979       .  S
O137        C138   1.259       .  A
C138        O139   1.264       .  A
C138        C431   1.436       .  S
O139       Cr153   2.007       .  S
O140       Cr153   1.982       .  S
O140        C141   1.259       .  A
C141        C410   1.439       .  S
O142       Cr151   1.976       .  S
O142        C150   1.258       .  A
O143       Cr151   2.011       .  S
O143        C144   1.264       .  A
C144        O145   1.258       .  A
C144        C393   1.436       .  S
O145       Cr152   1.977       .  S
O146       Cr152   2.008       .  S
O146        C147   1.264       .  A
C147        O148   1.259       .  A
C147        C396   1.437       .  S
O148       Cr153   1.980       .  S
O149       Cr153   2.009       .  S
O149        C150   1.264       .  A
C150        C391   1.435       .  S
Cr151       O154   1.775       .  S
Cr152       O154   1.775       .  S
Cr153       O154   1.774       .  S
O155       Cr173   1.978       .  S
O155        C163   1.259       .  A
O156       Cr173   2.007       .  S
O156        C157   1.264       .  A
C157        O158   1.258       .  A
C157        C397   1.434       .  S
O158       Cr174   1.976       .  S
O159       Cr174   2.009       .  S
O159        C160   1.265       .  A
C160        O161   1.259       .  A
C160        C448   1.437       .  S
O161       Cr175   1.980       .  S
O162       Cr175   2.009       .  S
O162        C163   1.264       .  A
C163        C390   1.436       .  S
O164       Cr173   2.006       .  S
O164        C172   1.263       .  A
O165       Cr173   1.976       .  S
O165        C166   1.258       .  A
C166        O167   1.265       .  A
C166        C384   1.438       .  S
O167       Cr174   2.013       .  S
O168       Cr174   1.976       .  S
O168        C169   1.258       .  A
C169        O170   1.264       .  A
C169        C386   1.437       .  S
O170       Cr175   2.012       .  S
O171       Cr175   1.977       .  S
O171        C172   1.259       .  A
C172        C382   1.433       .  S
Cr173       O176   1.775       .  S
Cr174       O176   1.774       .  S
Cr175       O176   1.774       .  S
N177        C182   1.354   1_565  A
N177        C181   1.354       .  A
N177        H209   1.037       .  S
N178        C185   1.352       .  A
N178        C186   1.352   1_655  A
N179        C184   1.354   1_565  A
N179        C183   1.354       .  A
N179        H210   1.035       .  S
N180        C187   1.352       .  A
N180        C188   1.352   1_655  A
C181        C189   1.388       .  A
C181        C197   1.415       .  A
C182        C198   1.415       .  A
C182        C190   1.388   1_545  A
C183        C191   1.388       .  A
C183        C200   1.418       .  A
C184        C199   1.418       .  A
C184        C192   1.388   1_545  A
C185        C197   1.413       .  A
C185        C193   1.387       .  A
C186        C200   1.414       .  A
C186        C194   1.387       .  A
C187        C195   1.387       .  A
C187        C198   1.413       .  A
C188        C196   1.387       .  A
C188        C199   1.414       .  A
C189        C190   1.375       .  A
C189        H201   1.082       .  S
C190        H202   1.082   1_565  S
C191        C192   1.376       .  A
C191        H203   1.082       .  S
C192        H204   1.082   1_565  S
C193        C194   1.372   1_655  A
C193        H205   1.082       .  S
C194        H206   1.082       .  S
C195        C196   1.372   1_655  A
C195        H207   1.082       .  S
C196        H208   1.082       .  S
C197        C406   1.453       .  S
C198        C385   1.453       .  S
C199        C395   1.453       .  S
C200        C419   1.453       .  S
N211        C216   1.353   1_565  A
N211        C215   1.353       .  A
N211        H243   1.040       .  S
N212        C219   1.351   1_655  A
N212        C220   1.351       .  A
N213        C218   1.353   1_565  A
N213        C217   1.353       .  A
N213        H244   1.039       .  S
N214        C221   1.351   1_655  A
N214        C222   1.351       .  A
C215        C223   1.388       .  A
C215        C231   1.414       .  A
C216        C232   1.414       .  A
C216        C224   1.388   1_545  A
C217        C225   1.388       .  A
C217        C234   1.413       .  A
C218        C233   1.413       .  A
C218        C226   1.388   1_545  A
C219        C231   1.411       .  A
C219        C227   1.387   1_455  A
C220        C234   1.411       .  A
C220        C228   1.386       .  A
C221        C229   1.387   1_455  A
C221        C232   1.411       .  A
C222        C230   1.386       .  A
C222        C233   1.411       .  A
C223        C224   1.378       .  A
C223        H235   1.082       .  S
C224        H236   1.082   1_565  S
C225        C226   1.377       .  A
C225        H237   1.082       .  S
C226        H238   1.082   1_565  S
C227        C228   1.375       .  A
C227        H239   1.082   1_655  S
C228        H240   1.082       .  S
C229        C230   1.375       .  A
C229        H241   1.082   1_655  S
C230        H242   1.082       .  S
C231        C427   1.452       .  S
C232        C440   1.452       .  S
C233        C456   1.451       .  S
C234        C476   1.451       .  S
N245        C250   1.353   1_565  A
N245        C249   1.353       .  A
N245        H277   1.039       .  S
N246        C253   1.350       .  A
N246        C254   1.350   1_556  A
N247        C252   1.353   1_565  A
N247        C251   1.353       .  A
N247        H278   1.039       .  S
N248        C255   1.350       .  A
N248        C256   1.350   1_556  A
C249        C257   1.388       .  A
C249        C265   1.413       .  A
C250        C266   1.413       .  A
C250        C258   1.388   1_545  A
C251        C259   1.388       .  A
C251        C268   1.413       .  A
C252        C267   1.413       .  A
C252        C260   1.388   1_545  A
C253        C265   1.410       .  A
C253        C261   1.387       .  A
C254        C268   1.411       .  A
C254        C262   1.387   1_554  A
C255        C263   1.387       .  A
C255        C266   1.410       .  A
C256        C264   1.387   1_554  A
C256        C267   1.411       .  A
C257        C258   1.376       .  A
C257        H269   1.082       .  S
C258        H270   1.082   1_565  S
C259        C260   1.376       .  A
C259        H271   1.082       .  S
C260        H272   1.082   1_565  S
C261        C262   1.375       .  A
C261        H273   1.082       .  S
C262        H274   1.082   1_556  S
C263        C264   1.375       .  A
C263        H275   1.082       .  S
C264        H276   1.082   1_556  S
C265        C430   1.449       .  S
C266        C442   1.449       .  S
C267        C394   1.451       .  S
C268        C417   1.451       .  S
N279        C284   1.354   1_556  A
N279        C283   1.355       .  A
N279        H311   1.037       .  S
N280        C287   1.352       .  A
N280        C288   1.352   1_655  A
N281        C286   1.353   1_556  A
N281        C285   1.354       .  A
N281        H312   1.037       .  S
N282        C289   1.352       .  A
N282        C290   1.352   1_655  A
C283        C291   1.388       .  A
C283        C299   1.417       .  A
C284        C300   1.417       .  A
C284        C292   1.388   1_554  A
C285        C293   1.388       .  A
C285        C302   1.415       .  A
C286        C301   1.415       .  A
C286        C294   1.388   1_554  A
C287        C299   1.413       .  A
C287        C295   1.387       .  A
C288        C302   1.412       .  A
C288        C296   1.386   1_455  A
C289        C297   1.387       .  A
C289        C300   1.414       .  A
C290        C298   1.387       .  A
C290        C301   1.413       .  A
C291        C292   1.376       .  A
C291        H303   1.082       .  S
C292        H304   1.082   1_556  S
C293        C294   1.374       .  A
C293        H305   1.082       .  S
C294        H306   1.082   1_556  S
C295        C296   1.373       .  A
C295        H307   1.082       .  S
C296        H308   1.082   1_655  S
C297        C298   1.373   1_655  A
C297        H309   1.082       .  S
C298        H310   1.082       .  S
C299        C458   1.453       .  S
C300        C383   1.454       .  S
C301        C392   1.451       .  S
C302        C444   1.452       .  S
N313        C318   1.355       .  A
N313        C317   1.355   1_565  A
N313        H345   1.036       .  S
N314        C321   1.351       .  A
N314        C322   1.352   1_556  A
N315        C320   1.353       .  A
N315        C319   1.353   1_565  A
N315        H346   1.032       .  S
N316        C323   1.351       .  A
N316        C324   1.352   1_556  A
C317        C325   1.388   1_545  A
C317        C333   1.418       .  A
C318        C334   1.418       .  A
C318        C326   1.388       .  A
C319        C327   1.388   1_545  A
C319        C336   1.416       .  A
C320        C335   1.416       .  A
C320        C328   1.388       .  A
C321        C333   1.414       .  A
C321        C329   1.387       .  A
C322        C336   1.415       .  A
C322        C330   1.387       .  A
C323        C331   1.388       .  A
C323        C334   1.414       .  A
C324        C332   1.387       .  A
C324        C335   1.415       .  A
C325        C326   1.374       .  A
C325        H337   1.082   1_565  S
C326        H338   1.082       .  S
C327        C328   1.373       .  A
C327        H339   1.082   1_565  S
C328        H340   1.082       .  S
C329        C330   1.372   1_556  A
C329        H341   1.082       .  S
C330        H342   1.082       .  S
C331        C332   1.372   1_556  A
C331        H343   1.082       .  S
C332        H344   1.082       .  S
C333        C453   1.453       .  S
C334        C471   1.453       .  S
C335        C403   1.450       .  S
C336        C381   1.450       .  S
N347        C352   1.354       .  A
N347        C351   1.354   1_556  A
N347        H379   1.037       .  S
N348        C355   1.352       .  A
N348        C356   1.352   1_655  A
N349        C354   1.354       .  A
N349        C353   1.353   1_556  A
N349        H380   1.037       .  S
N350        C357   1.352       .  A
N350        C358   1.352   1_655  A
C351        C359   1.388   1_554  A
C351        C367   1.416       .  A
C352        C368   1.417       .  A
C352        C360   1.388       .  A
C353        C361   1.388   1_554  A
C353        C370   1.414       .  A
C354        C369   1.415       .  A
C354        C362   1.388       .  A
C355        C367   1.414       .  A
C355        C363   1.387       .  A
C356        C370   1.413       .  A
C356        C364   1.387       .  A
C357        C365   1.387       .  A
C357        C368   1.413       .  A
C358        C366   1.386   1_455  A
C358        C369   1.412       .  A
C359        C360   1.376       .  A
C359        H371   1.082   1_556  S
C360        H372   1.082       .  S
C361        C362   1.375       .  A
C361        H373   1.082   1_556  S
C362        H374   1.082       .  S
C363        C364   1.373   1_655  A
C363        H375   1.082       .  S
C364        H376   1.082       .  S
C365        C366   1.373       .  A
C365        H377   1.082       .  S
C366        H378   1.082   1_655  S
C367        C401   1.454       .  S
C368        C473   1.453       .  S
C369        C426   1.452       .  S
C370        C416   1.451       .  S
C381        C382   1.205       .  T
C383        C384   1.208       .  T
C385        C386   1.207       .  T
C387        C388   1.206       .  T
C388        C389   1.413       .  S
C389        C390   1.206       .  T
C391        C392   1.206       .  T
C393        C394   1.207       .  T
C395        C396   1.207       .  T
C397        C398   1.205       .  T
C398        C399   1.411       .  S
C399        C400   1.205       .  T
C401        C402   1.208       .  T
C403        C404   1.206       .  T
C405        C406   1.207       .  T
C407        C408   1.208       .  T
C408        C409   1.416       .  S
C409        C410   1.208       .  T
C411        C412   1.206       .  T
C412        C413   1.413       .  S
C413        C414   1.206       .  T
C415        C416   1.206       .  T
C417        C418   1.207       .  T
C419        C420   1.207       .  T
C421        C422   1.206       .  T
C422        C423   1.413       .  S
C423        C424   1.206       .  T
C425        C426   1.207       .  T
C427        C428   1.208       .  T
C429        C430   1.206       .  T
C431        C432   1.206       .  T
C432        C433   1.413       .  S
C433        C434   1.206       .  T
C435        C436   1.208       .  T
C436        C437   1.416       .  S
C437        C438   1.208       .  T
C439        C440   1.208       .  T
C441        C442   1.206       .  T
C443        C444   1.207       .  T
C445        C446   1.207       .  T
C446        C447   1.414       .  S
C447        C448   1.207       .  T
C449        C450   1.207       .  T
C450        C451   1.414       .  S
C451        C452   1.207       .  T
C453        C454   1.207       .  T
C455        C456   1.207       .  T
C457        C458   1.208       .  T
C459        C460   1.207       .  T
C460        C461   1.414       .  S
C461        C462   1.207       .  T
C463        C464   1.207       .  T
C464        C465   1.414       .  S
C465        C466   1.207       .  T
C467        C468   1.207       .  T
C468        C469   1.414       .  S
C469        C470   1.207       .  T
C471        C472   1.207       .  T
C473        C474   1.208       .  T
C475        C476   1.207       .  T
