geometry optimzed in LAMMPS
_audit_creation_date              2020-11-30 
_audit_creation_method            'lammps2cif' 
_symmetry_space_group_name_H-M    'P1' 
_symmetry_Int_Tables_number       1 
_symmetry_cell_setting            triclinic 
loop_ 
_symmetry_equiv_pos_as_xyz 
  x,y,z 
_cell_length_a                    35.8101272609212 
_cell_length_b                    39.62307340044359 
_cell_length_c                    36.381558185228826 
_cell_angle_alpha                 89.01490225156871 
_cell_angle_beta                  89.57790571970854 
_cell_angle_gamma                 89.29856979852708 
loop_ 
_atom_site_label 
_atom_site_type_symbol 
_atom_site_fract_x 
_atom_site_fract_y 
_atom_site_fract_z 
_atom_site_charge 
N1          N  0.45675653  0.46296172  0.43162574    -0.04240
N2          N  0.45019506  0.43946183  0.40727710    -0.56360
N3          N  0.43011207  0.04129986  0.45431587    -0.03920
N4          N  0.40688263  0.06680818  0.44744706    -0.58490
N5          N  0.45663411  0.04037254  0.42914326    -0.03520
N6          N  0.45200454  0.06502162  0.40472856    -0.56340
N7          N  0.43017648  0.46346853  0.45683143    -0.03200
N8          N  0.40502642  0.44030232  0.45016702    -0.58840
C9          C  0.41817270  0.42533712  0.41951152     0.97930
C10         C  0.42099811  0.08149231  0.41645833     0.97710
N11         N  0.45380808  0.04196128  0.06669676    -0.04430
N12         N  0.44648737  0.06579379  0.09066909    -0.56940
N13         N  0.42808707  0.46453805  0.04441456    -0.02550
N14         N  0.40207678  0.44237283  0.05332576    -0.58190
N15         N  0.45391452  0.46494631  0.06999522    -0.04460
N16         N  0.44595335  0.44331188  0.09683805    -0.57210
N17         N  0.42791363  0.04156383  0.04125745    -0.02190
N18         N  0.40210692  0.06480222  0.04765707    -0.58280
Mn19       Mn  0.42793254  0.50264764  0.49906352     1.18440
C20         C  0.41435191  0.07991459  0.07825751     1.00010
C21         C  0.41371391  0.42939719  0.08601530     1.00680
N22         N  0.04385469  0.04054249  0.43018834    -0.04480
N23         N  0.05007422  0.06460545  0.40542913    -0.60790
N24         N  0.07098292  0.46353803  0.45843293    -0.03280
N25         N  0.09627965  0.43951739  0.45313120    -0.61460
N26         N  0.04526804  0.46280104  0.43280793    -0.03990
N27         N  0.05263174  0.43841307  0.40945641    -0.61050
N28         N  0.06893717  0.04138895  0.45635704    -0.02880
N29         N  0.09265602  0.06607054  0.45010142    -0.61740
Mn30       Mn  0.50066779  0.50146637  0.42982524     1.10660
C31         C  0.08012999  0.08062852  0.41863559     1.01240
C32         C  0.08411228  0.42377825  0.42285700     1.01310
N33         N  0.04268114  0.46433792  0.06939275    -0.03990
N34         N  0.04861353  0.43973755  0.09356747    -0.59370
N35         N  0.06741897  0.04269381  0.04262234    -0.03310
N36         N  0.08988313  0.06836655  0.04833521    -0.56100
N37         N  0.04076929  0.04197556  0.06761762    -0.04620
N38         N  0.04445278  0.06686223  0.09076474    -0.58930
N39         N  0.06939459  0.46459213  0.04442024    -0.03610
N40         N  0.09394262  0.44011715  0.05102634    -0.56120
Mn41       Mn  0.99795602  0.00311593  0.06935015     1.20190
Mn42       Mn  0.07044474  0.00313258  0.00046889     1.10090
Cl43       Cl  0.99915470  0.00231328  0.99966085    -0.84090
C44         C  0.08056323  0.42465107  0.08174288     0.98240
C45         C  0.07503257  0.08328930  0.07850837     0.98040
C46         C  0.16748616  0.17547577  0.32755534    -0.00610
C47         C  0.16995210  0.32638198  0.33406849    -0.00610
C48         C  0.16559171  0.32644102  0.17170681    -0.00610
C49         C  0.16058394  0.17863467  0.16342036    -0.00610
C50         C  0.33088042  0.17721146  0.32996145    -0.00610
C51         C  0.32508400  0.17826263  0.16360515    -0.00610
C52         C  0.33506797  0.32495368  0.17292329    -0.00610
C53         C  0.33344752  0.32732199  0.33590973    -0.00610
C54         C  0.36923639  0.34777797  0.23444367     0.25470
C55         C  0.34767875  0.32368952  0.21511643    -0.22640
C56         C  0.33506719  0.29716127  0.23810356     0.20380
C57         C  0.32634780  0.30214890  0.27390371     0.25410
C58         C  0.34429942  0.32678357  0.29413553    -0.22580
C59         C  0.36889155  0.34828712  0.27374939     0.20310
F60         F  0.39165261  0.37011299  0.29066859    -0.12540
F61         F  0.39291238  0.36889614  0.21656052    -0.14900
F62         F  0.30008346  0.28186593  0.28914977    -0.14900
F63         F  0.33411490  0.26476207  0.22826333    -0.12540
C64         C  0.36646200  0.23266467  0.16994616     0.25470
C65         C  0.33537210  0.21668133  0.15267816    -0.22640
C66         C  0.31325964  0.23933846  0.13037775     0.20380
C67         C  0.31756019  0.27453512  0.13154341     0.25410
C68         C  0.34237780  0.28903790  0.15624906    -0.22580
C69         C  0.37161579  0.26774846  0.16841098     0.20310
F70         F  0.40130765  0.28078043  0.18609277    -0.12540
F71         F  0.38958529  0.21545744  0.19329494    -0.14900
F72         F  0.29555213  0.29462577  0.10999183    -0.14900
F73         F  0.28636968  0.22944009  0.10763227    -0.12540
C74         C  0.31464253  0.20055133  0.26608092     0.25470
C75         C  0.33739604  0.17767257  0.28639320    -0.22640
C76         C  0.35438931  0.15149183  0.26482723     0.20380
C77         C  0.35424232  0.15257923  0.22578878     0.25410
C78         C  0.33172183  0.17643422  0.20645625    -0.22580
C79         C  0.31066311  0.19879747  0.22824737     0.20310
F80         F  0.28283985  0.21742974  0.21297749    -0.12540
F81         F  0.29002745  0.22091458  0.28354535    -0.14900
F82         F  0.37183628  0.12719425  0.20781085    -0.14900
F83         F  0.36418337  0.12134879  0.28038905    -0.12540
C84         C  0.36704108  0.23410597  0.33074315     0.25470
C85         C  0.33493766  0.21566524  0.34204176    -0.22640
C86         C  0.30916205  0.23435491  0.36390393     0.20380
C87         C  0.31213165  0.26946307  0.36842762     0.25410
C88         C  0.33928883  0.28879872  0.34943027    -0.22580
C89         C  0.36953044  0.26935070  0.33503685     0.20310
F90         F  0.40024178  0.28505055  0.32126585    -0.12540
F91         F  0.39551035  0.21859075  0.31280022    -0.14900
F92         F  0.28991718  0.28315295  0.39440999    -0.14900
F93         F  0.28169442  0.21964193  0.38351372    -0.12540
C94         C  0.22371701  0.16984819  0.12324038     0.25470
C95         C  0.20185968  0.16324496  0.15585533    -0.22640
C96         C  0.22336402  0.14699794  0.18366637     0.20380
C97         C  0.26188981  0.15116178  0.18572049     0.25410
C98         C  0.28216051  0.16927378  0.15833494    -0.22580
C99         C  0.26328643  0.17035617  0.12435053     0.20310
F100        F  0.28284629  0.17148778  0.09220007    -0.12540
F101        F  0.20850375  0.17891928  0.09087710    -0.14900
F102        F  0.28005875  0.13100586  0.21030554    -0.14900
F103        F  0.21074176  0.11977883  0.20235261    -0.12540
C104        C  0.12771271  0.23728928  0.14592472     0.25470
C105        C  0.16089540  0.21777719  0.15279367    -0.22640
C106        C  0.19429804  0.23678558  0.15211861     0.20380
C107        C  0.19374523  0.27109616  0.14363568     0.25410
C108        C  0.16212660  0.29046267  0.15323102    -0.22580
C109        C  0.12790004  0.27308626  0.14922100     0.20310
F110        F  0.09478402  0.28977827  0.15188383    -0.12540
F111        F  0.09429008  0.22199677  0.14209961    -0.14900
F112        F  0.22551009  0.28528629  0.13068439    -0.14900
F113        F  0.22731260  0.22440885  0.16427267    -0.12540
C114        C  0.22976489  0.36006610  0.15691037     0.25470
C115        C  0.20875584  0.33497720  0.17614514    -0.22640
C116        C  0.23050252  0.31239532  0.19780255     0.20380
C117        C  0.26818850  0.30859147  0.19234985     0.25410
C118        C  0.29065194  0.33181279  0.17321543    -0.22580
C119        C  0.26969163  0.35791497  0.15440016     0.20310
F120        F  0.28616168  0.37926889  0.12999609    -0.12540
F121        F  0.21256472  0.38679943  0.14030760    -0.14900
F122        F  0.27975704  0.27686655  0.19811290    -0.14900
F123        F  0.21555624  0.28670920  0.21737273    -0.12540
C124        C  0.15660046  0.29755070  0.27085020     0.25470
C125        C  0.15438058  0.32701318  0.29269484    -0.22640
C126        C  0.14400539  0.35666905  0.27181954     0.20380
C127        C  0.14785687  0.35738018  0.23296990     0.25410
C128        C  0.15088630  0.32708744  0.21279044    -0.22580
C129        C  0.14747978  0.29749680  0.23394816     0.20310
F130        F  0.14982507  0.26725460  0.21841789    -0.12540
F131        F  0.17486381  0.26919709  0.28144861    -0.14900
F132        F  0.14945576  0.38784907  0.21544132    -0.14900
F133        F  0.13224499  0.38556914  0.28733640    -0.12540
C134        C  0.23068350  0.34157620  0.36931922     0.25470
C135        C  0.21143013  0.33893608  0.33519735    -0.22640
C136        C  0.23267609  0.34709161  0.30343471     0.20380
C137        C  0.27110106  0.35004590  0.30522482     0.25410
C138        C  0.29105909  0.33970198  0.33730272    -0.22580
C139        C  0.27015409  0.34278469  0.37013018     0.20310
F140        F  0.28768330  0.34481797  0.40297741    -0.12540
F141        F  0.21198209  0.33861705  0.40175989    -0.14900
F142        F  0.28809956  0.36329416  0.27484155    -0.14900
F143        F  0.21782195  0.35214560  0.26981612    -0.12540
C144        C  0.14884598  0.14372340  0.22626134     0.25470
C145        C  0.15022848  0.17470098  0.20621309    -0.22640
C146        C  0.13511352  0.20112289  0.22682403     0.20380
C147        C  0.13802827  0.20170131  0.26516157     0.25410
C148        C  0.15123836  0.17321435  0.28611553    -0.22580
C149        C  0.14886224  0.14283264  0.26522928     0.20310
F150        F  0.14598350  0.11192823  0.28065836    -0.12540
F151        F  0.14534398  0.11401189  0.20851555    -0.14900
F152        F  0.11950244  0.22773195  0.28017923    -0.14900
F153        F  0.10768405  0.22072150  0.21217655    -0.12540
C154        C  0.22758879  0.16094299  0.36501406     0.25470
C155        C  0.20930664  0.16250507  0.33029029    -0.22640
C156        C  0.23219717  0.15382703  0.30004735     0.20380
C157        C  0.27029702  0.14788209  0.30463155     0.25410
C158        C  0.28976266  0.16072130  0.33515958    -0.22580
C159        C  0.26701275  0.15911443  0.36742128     0.20310
F160        F  0.28119414  0.15644197  0.40154028    -0.12540
F161        F  0.20785659  0.16481939  0.39667528    -0.14900
F162        F  0.28756675  0.12879184  0.27916348    -0.14900
F163        F  0.21991513  0.15302281  0.26526559    -0.12540
C164        C  0.20171149  0.26727611  0.34871066     0.25470
C165        C  0.16885211  0.28784964  0.34774724    -0.22640
C166        C  0.13480265  0.26951961  0.34771611     0.20380
C167        C  0.13423736  0.23371506  0.34659666     0.25410
C168        C  0.16735420  0.21422565  0.33997981    -0.22580
C169        C  0.20085366  0.23302541  0.34124840     0.20310
F170        F  0.23359257  0.22109133  0.32785583    -0.12540
F171        F  0.23633622  0.27990597  0.34632876    -0.14900
F172        F  0.10024259  0.21884740  0.34538627    -0.14900
F173        F  0.10176154  0.28634723  0.34378486    -0.12540
C174        C  0.12450915  0.16182015  0.38611570     0.25470
C175        C  0.14549125  0.15121056  0.35471352    -0.22640
C176        C  0.15044593  0.11551510  0.35223547     0.20380
C177        C  0.12749342  0.09313565  0.37139408     0.25410
C178        C  0.10188778  0.10503364  0.39713492    -0.22580
C179        C  0.10174635  0.13919586  0.40578743     0.20310
F180        F  0.08117787  0.15036216  0.43473541    -0.12540
F181        F  0.12986703  0.19196432  0.40204537    -0.14900
F182        F  0.13211270  0.05940820  0.36654481    -0.14900
F183        F  0.18028777  0.10157145  0.33461596    -0.12540
C184        C  0.15291841  0.35801904  0.11014273     0.25470
C185        C  0.14198852  0.35077134  0.14686821    -0.22640
C186        C  0.10581339  0.36254307  0.15759851     0.20380
C187        C  0.08605962  0.38591820  0.13620269     0.25410
C188        C  0.10018410  0.39708220  0.10219412    -0.22580
C189        C  0.13304965  0.38175731  0.08857264     0.20310
F190        F  0.14600883  0.38953165  0.05434935    -0.12540
F191        F  0.18317172  0.34237149  0.09511242    -0.14900
F192        F  0.05259560  0.39730038  0.14908709    -0.14900
F193        F  0.08764946  0.35027529  0.18775455    -0.12540
C194        C  0.40893897  0.13369596  0.11197854     0.25470
C195        C  0.39241431  0.10474198  0.09892274    -0.22640
C196        C  0.35525265  0.09842109  0.10755978     0.20380
C197        C  0.33487669  0.12031848  0.12986172     0.25410
C198        C  0.34968758  0.15195647  0.14135903    -0.22580
C199        C  0.38796142  0.15745695  0.13152595     0.20310
F200        F  0.40656220  0.18556302  0.13956762    -0.12540
F201        F  0.44557943  0.13966016  0.10476521    -0.14900
F202        F  0.30107620  0.10872131  0.14065121    -0.14900
F203        F  0.33899749  0.06965889  0.09612656    -0.12540
C204        C  0.10004313  0.14243352  0.15482740     0.25470
C205        C  0.13108727  0.15994540  0.13952440    -0.22640
C206        C  0.13296045  0.16002874  0.10061892     0.20380
C207        C  0.11567321  0.13472233  0.08049372     0.25410
C208        C  0.09175401  0.11178785  0.09822193    -0.22580
C209        C  0.08199683  0.11767186  0.13501749     0.20310
F210        F  0.05498591  0.09944208  0.15227691    -0.12540
F211        F  0.08490158  0.15029625  0.18790987    -0.14900
F212        F  0.12037547  0.13412113  0.04345109    -0.14900
F213        F  0.14511457  0.18755962  0.08175550    -0.12540
C214        C  0.35195195  0.38771882  0.35209438     0.25470
C215        C  0.35702820  0.35241978  0.35816409    -0.22640
C216        C  0.38263323  0.34214618  0.38616476     0.20380
C217        C  0.40263758  0.36597267  0.40574262     0.25410
C218        C  0.39726418  0.40042817  0.39888847    -0.22580
C219        C  0.37170624  0.41119673  0.37224915     0.20310
F220        F  0.36587773  0.44468593  0.36566216    -0.12540
F221        F  0.32810148  0.39984024  0.32610426    -0.14900
F222        F  0.42732090  0.35529735  0.43174646    -0.14900
F223        F  0.38894524  0.30934175  0.39547701    -0.12540
C224        C  0.39504020  0.14380097  0.34006991     0.25470
C225        C  0.36085430  0.15745880  0.35357452    -0.22640
C226        C  0.35715879  0.15552169  0.39235696     0.20380
C227        C  0.37601435  0.13057577  0.41294389     0.25410
C228        C  0.40325193  0.11021908  0.39619111    -0.22580
C229        C  0.41463859  0.11901367  0.36026837     0.20310
F230        F  0.44507122  0.10417134  0.34464831    -0.12540
F231        F  0.41192387  0.15609708  0.30927615    -0.14900
F232        F  0.36905506  0.12774284  0.44959302    -0.14900
F233        F  0.33978601  0.18051469  0.41110070    -0.12540
C234        C  0.10459629  0.36440685  0.41104376     0.25470
C235        C  0.10644190  0.39884339  0.40256399    -0.22640
C236        C  0.13142572  0.40991357  0.37560384     0.20380
C237        C  0.15258779  0.38677517  0.35555949     0.25410
C238        C  0.14754895  0.35120355  0.35975777    -0.22580
C239        C  0.12579206  0.34091512  0.39099871     0.20310
F240        F  0.12703726  0.30910194  0.40508527    -0.12540
F241        F  0.08302750  0.35351529  0.43960928    -0.14900
F242        F  0.17903427  0.39979549  0.33258497    -0.14900
F243        F  0.13596558  0.44348208  0.36908429    -0.12540
C244        C  0.37075447  0.41221281  0.13733709     0.25380
C245        C  0.39370151  0.40350554  0.10758524    -0.22640
C246        C  0.39888434  0.36964002  0.09920763     0.20380
C247        C  0.38096310  0.34438319  0.11965676     0.25410
C248        C  0.35670421  0.35234002  0.14987338    -0.22580
C249        C  0.35268386  0.38712314  0.15829808     0.20310
F250        F  0.33043234  0.39701891  0.18664892    -0.12540
F251        F  0.36555763  0.44515184  0.14594502    -0.14900
F252        F  0.38861950  0.31241199  0.10907737    -0.14900
F253        F  0.42208413  0.36081479  0.07116242    -0.12540
N254        N  0.45675382  0.46296165  0.93162619    -0.04240
N255        N  0.45019196  0.43946186  0.90727781    -0.56360
N256        N  0.43010925  0.04129992  0.95431652    -0.03920
N257        N  0.40687996  0.06680807  0.94744778    -0.58490
N258        N  0.45663138  0.04037258  0.92914355    -0.03520
N259        N  0.45200159  0.06502153  0.90472912    -0.56340
N260        N  0.43017369  0.46346869  0.95683213    -0.03200
N261        N  0.40502352  0.44030283  0.95016785    -0.58840
C262        C  0.41816942  0.42533739  0.91951232     0.97930
C263        C  0.42099515  0.08149235  0.91645893     0.97710
N264        N  0.45381023  0.04196122  0.56669633    -0.04430
N265        N  0.44648968  0.06579391  0.59066885    -0.56940
N266        N  0.42808914  0.46453808  0.54441439    -0.02550
N267        N  0.40207845  0.44237298  0.55332580    -0.58190
N268        N  0.45391648  0.46494625  0.56999477    -0.04460
N269        N  0.44595536  0.44331179  0.59683788    -0.57210
N270        N  0.42791604  0.04156389  0.54125718    -0.02190
N271        N  0.40210927  0.06480256  0.54765671    -0.58280
Mn272      Mn  0.42793026  0.50264769  0.99906399     1.18440
C273        C  0.41435439  0.07991481  0.57825713     1.00010
C274        C  0.41371577  0.42939745  0.58601527     1.00680
N275        N  0.04385179  0.04054250  0.93018803    -0.04480
N276        N  0.05007149  0.06460486  0.90542846    -0.60790
N277        N  0.07098064  0.46353835  0.95843283    -0.03280
N278        N  0.09627746  0.43951811  0.95313058    -0.61460
N279        N  0.04526531  0.46280118  0.93280789    -0.03990
N280        N  0.05262909  0.43841350  0.90945634    -0.61050
N281        N  0.06893462  0.04138920  0.95635678    -0.02880
N282        N  0.09265355  0.06607034  0.95010040    -0.61740
Mn283      Mn  0.50066499  0.50146638  0.92982555     1.10660
C284        C  0.08012759  0.08062794  0.91863427     1.01240
C285        C  0.08411005  0.42377890  0.92285634     1.01310
N286        N  0.04268325  0.46433759  0.56939237    -0.03990
N287        N  0.04861537  0.43973690  0.59356732    -0.59370
N288        N  0.06742108  0.04269317  0.54262232    -0.03310
N289        N  0.08988546  0.06836619  0.54833479    -0.56100
N290        N  0.04077166  0.04197510  0.56761720    -0.04620
N291        N  0.04445488  0.06686222  0.59076432    -0.58930
N292        N  0.06939641  0.46459175  0.54442025    -0.03610
N293        N  0.09394464  0.44011647  0.55102617    -0.56120
Mn294      Mn  0.99795813  0.00311570  0.56934997     1.20190
Mn295      Mn  0.07044714  0.00313215  0.50046893     1.10090
Cl296      Cl  0.99915703  0.00231309  0.49966062    -0.84090
C297        C  0.08056492  0.42465055  0.58174251     0.98240
C298        C  0.07503460  0.08328899  0.57850762     0.98040
C299        C  0.16748323  0.17547561  0.82755400    -0.00610
C300        C  0.16994858  0.32638102  0.83406862    -0.00610
C301        C  0.16559346  0.32644076  0.67170680    -0.00610
C302        C  0.16058584  0.17863467  0.66341886    -0.00610
C303        C  0.33087791  0.17721155  0.82996173    -0.00610
C304        C  0.32508582  0.17826292  0.66360516    -0.00610
C305        C  0.33506990  0.32495426  0.67292434    -0.00610
C306        C  0.33344486  0.32732185  0.83591088    -0.00610
C307        C  0.36923494  0.34778032  0.73444568     0.25470
C308        C  0.34768018  0.32369025  0.71511770    -0.22640
C309        C  0.33506978  0.29716127  0.73810462     0.20380
C310        C  0.32634842  0.30214877  0.77390437     0.25410
C311        C  0.34429792  0.32678419  0.79413688    -0.22580
C312        C  0.36888893  0.34828935  0.77375142     0.20310
F313        F  0.39164739  0.37011704  0.79067118    -0.12540
F314        F  0.39290925  0.36890056  0.71656331    -0.14900
F315        F  0.30008438  0.28186487  0.78914942    -0.14900
F316        F  0.33411804  0.26476207  0.72826419    -0.12540
C317        C  0.36646389  0.23266497  0.66994668     0.25470
C318        C  0.33537414  0.21668168  0.65267833    -0.22640
C319        C  0.31326168  0.23933909  0.63037819     0.20380
C320        C  0.31756222  0.27453576  0.63154420     0.25410
C321        C  0.34237973  0.28903841  0.65625001    -0.22580
C322        C  0.37161765  0.26774882  0.66841187     0.20310
F323        F  0.40130928  0.28078065  0.68609418    -0.12540
F324        F  0.38958645  0.21545788  0.69329626    -0.14900
F325        F  0.29555441  0.29462654  0.60999251    -0.14900
F326        F  0.28637159  0.22944101  0.60763270    -0.12540
C327        C  0.31464136  0.20055150  0.76608086     0.25470
C328        C  0.33739437  0.17767269  0.78639360    -0.22640
C329        C  0.35438813  0.15149195  0.76482799     0.20380
C330        C  0.35424244  0.15257953  0.72578953     0.25410
C331        C  0.33172270  0.17643469  0.70645644    -0.22580
C332        C  0.31066341  0.19879798  0.72824708     0.20310
F333        F  0.28284078  0.21743042  0.71297642    -0.12540
F334        F  0.29002515  0.22091409  0.78354486    -0.14900
F335        F  0.37183672  0.12719450  0.70781198    -0.14900
F336        F  0.36418150  0.12134880  0.78038998    -0.12540
C337        C  0.36703865  0.23410600  0.83074367     0.25470
C338        C  0.33493517  0.21566529  0.84204219    -0.22640
C339        C  0.30915984  0.23435481  0.86390484     0.20380
C340        C  0.31212975  0.26946296  0.86842897     0.25410
C341        C  0.33928669  0.28879863  0.84943141    -0.22580
C342        C  0.36952817  0.26935065  0.83503769     0.20310
F343        F  0.40023949  0.28505049  0.82126661    -0.12540
F344        F  0.39550781  0.21859090  0.81280047    -0.14900
F345        F  0.28991652  0.28315283  0.89441240    -0.14900
F346        F  0.28169255  0.21964154  0.88351492    -0.12540
C347        C  0.22371921  0.16984870  0.62323945     0.25470
C348        C  0.20186161  0.16324494  0.65585413    -0.22640
C349        C  0.22336582  0.14699784  0.68366527     0.20380
C350        C  0.26189166  0.15116144  0.68571943     0.25410
C351        C  0.28216243  0.16927403  0.65833440    -0.22580
C352        C  0.26328861  0.17035684  0.62434989     0.20310
F353        F  0.28284870  0.17148897  0.59219958    -0.12540
F354        F  0.20850624  0.17892049  0.59087627    -0.14900
F355        F  0.28006060  0.13100502  0.71030399    -0.14900
F356        F  0.21074308  0.11977947  0.70235246    -0.12540
C357        C  0.12771531  0.23728934  0.64592245     0.25470
C358        C  0.16089771  0.21777715  0.65279224    -0.22640
C359        C  0.19430039  0.23678548  0.65211862     0.20380
C360        C  0.19374793  0.27109612  0.64363619     0.25410
C361        C  0.16212900  0.29046257  0.65323067    -0.22580
C362        C  0.12790255  0.27308619  0.64921961     0.20310
F363        F  0.09478643  0.28977810  0.65188178    -0.12540
F364        F  0.09429276  0.22199696  0.64209611    -0.14900
F365        F  0.22551314  0.28528624  0.63068580    -0.14900
F366        F  0.22731452  0.22440850  0.66427344    -0.12540
C367        C  0.22976659  0.36006598  0.65691021     0.25470
C368        C  0.20875752  0.33497745  0.67614560    -0.22640
C369        C  0.23050437  0.31239604  0.69780348     0.20380
C370        C  0.26819045  0.30859237  0.69235113     0.25410
C371        C  0.29065380  0.33181327  0.67321607    -0.22580
C372        C  0.26969333  0.35791472  0.65439978     0.20310
F373        F  0.28616316  0.37926743  0.62999429    -0.12540
F374        F  0.21256646  0.38679902  0.64030686    -0.14900
F375        F  0.27975933  0.27686771  0.69811520    -0.14900
F376        F  0.21555844  0.28671017  0.71737421    -0.12540
C377        C  0.15660079  0.29754965  0.77084998     0.25470
C378        C  0.15437796  0.32701183  0.79269478    -0.22640
C379        C  0.14400236  0.35666746  0.77181941     0.20380
C380        C  0.14785567  0.35737904  0.73296990     0.25410
C381        C  0.15088717  0.32708651  0.71279021    -0.22580
C382        C  0.14748143  0.29749553  0.73394759     0.20310
F383        F  0.14982911  0.26725349  0.71841712    -0.12540
F384        F  0.17486586  0.26919709  0.78144903    -0.14900
F385        F  0.14945417  0.38784816  0.71544175    -0.14900
F386        F  0.13223976  0.38556689  0.78733630    -0.12540
C387        C  0.23067998  0.34157623  0.86931930     0.25470
C388        C  0.21142688  0.33893468  0.83519744    -0.22640
C389        C  0.23267317  0.34708911  0.80343468     0.20380
C390        C  0.27109806  0.35004351  0.80522488     0.25410
C391        C  0.29105598  0.33970069  0.83730320    -0.22580
C392        C  0.27015065  0.34278408  0.87013048     0.20310
F393        F  0.28767956  0.34481820  0.90297777    -0.12540
F394        F  0.21197824  0.33861855  0.90175995    -0.14900
F395        F  0.28809645  0.36329161  0.77484149    -0.14900
F396        F  0.21781931  0.35214272  0.76981593    -0.12540
C397        C  0.14884646  0.14372340  0.72625960     0.25470
C398        C  0.15022972  0.17470101  0.70621142    -0.22640
C399        C  0.13511405  0.20112292  0.72682188     0.20380
C400        C  0.13802760  0.20170145  0.76515942     0.25410
C401        C  0.15123632  0.17321433  0.78611392    -0.22580
C402        C  0.14886097  0.14283261  0.76522758     0.20310
F403        F  0.14598068  0.11192832  0.78065665    -0.12540
F404        F  0.14534508  0.11401191  0.70851362    -0.14900
F405        F  0.11950262  0.22773299  0.78017619    -0.14900
F406        F  0.10768552  0.22072207  0.71217355    -0.12540
C407        C  0.22758562  0.16094231  0.86501305     0.25470
C408        C  0.20930382  0.16250528  0.83028911    -0.22640
C409        C  0.23219481  0.15382865  0.80004602     0.20380
C410        C  0.27029447  0.14788318  0.80463057     0.25410
C411        C  0.28975990  0.16072162  0.83515913    -0.22580
C412        C  0.26700961  0.15911423  0.86742060     0.20310
F413        F  0.28119064  0.15644107  0.90153969    -0.12540
F414        F  0.20785303  0.16481761  0.89667421    -0.14900
F415        F  0.28756428  0.12879356  0.77916200    -0.14900
F416        F  0.21991361  0.15302706  0.76526380    -0.12540
C417        C  0.20170673  0.26727528  0.84871447     0.25470
C418        C  0.16884756  0.28784886  0.84774784    -0.22640
C419        C  0.13479812  0.26951888  0.84771429     0.20380
C420        C  0.13423307  0.23371435  0.84659445     0.25410
C421        C  0.16735044  0.21422525  0.83997897    -0.22580
C422        C  0.20084970  0.23302499  0.84125038     0.20310
F423        F  0.23358951  0.22109178  0.82785887    -0.12540
F424        F  0.23633174  0.27990486  0.84633801    -0.14900
F425        F  0.10023853  0.21884645  0.84538208    -0.14900
F426        F  0.10175724  0.28634655  0.84378128    -0.12540
C427        C  0.12450524  0.16181974  0.88611355     0.25470
C428        C  0.14548808  0.15121020  0.85471176    -0.22640
C429        C  0.15044323  0.11551476  0.85223390     0.20380
C430        C  0.12749109  0.09313513  0.87139275     0.25410
C431        C  0.10188503  0.10503297  0.89713332    -0.22580
C432        C  0.10174266  0.13919531  0.90578522     0.20310
F433        F  0.08117345  0.15036163  0.93473271    -0.12540
F434        F  0.12986207  0.19196416  0.90204301    -0.14900
F435        F  0.13211098  0.05940768  0.86654390    -0.14900
F436        F  0.18028516  0.10157139  0.83461426    -0.12540
C437        C  0.15292028  0.35801864  0.61014259     0.25470
C438        C  0.14199018  0.35077087  0.64686798    -0.22640
C439        C  0.10581466  0.36254200  0.65759783     0.20380
C440        C  0.08606089  0.38591710  0.63620194     0.25410
C441        C  0.10018576  0.39708144  0.60219373    -0.22580
C442        C  0.13305152  0.38175687  0.58857241     0.20310
F443        F  0.14601096  0.38953140  0.55434929    -0.12540
F444        F  0.18317371  0.34237119  0.59511240    -0.14900
F445        F  0.05259649  0.39729874  0.64908593    -0.14900
F446        F  0.08765028  0.35027359  0.68775329    -0.12540
C447        C  0.40894168  0.13369548  0.61198011     0.25470
C448        C  0.39241669  0.10474231  0.59892258    -0.22640
C449        C  0.35525460  0.09842203  0.60755824     0.20380
C450        C  0.33487847  0.12031919  0.62986035     0.25410
C451        C  0.34968970  0.15195655  0.64135931    -0.22580
C452        C  0.38796408  0.15745633  0.63152785     0.20310
F453        F  0.40656543  0.18556151  0.63957162    -0.12540
F454        F  0.44558255  0.13965908  0.60476831    -0.14900
F455        F  0.30107750  0.10872217  0.64064850    -0.14900
F456        F  0.33899905  0.06966052  0.59612358    -0.12540
C457        C  0.10004454  0.14243436  0.65482566     0.25470
C458        C  0.13108921  0.15994555  0.63952276    -0.22640
C459        C  0.13296289  0.16002836  0.60061734     0.20380
C460        C  0.11567563  0.13472180  0.58049240     0.25410
C461        C  0.09175596  0.11178790  0.59822080    -0.22580
C462        C  0.08199823  0.11767256  0.63501602     0.20310
F463        F  0.05498682  0.09944338  0.65227542    -0.12540
F464        F  0.08490254  0.15029781  0.68790772    -0.14900
F465        F  0.12037837  0.13411999  0.54344985    -0.14900
F466        F  0.14511713  0.18755899  0.58175360    -0.12540
C467        C  0.35194630  0.38771896  0.85209773     0.25470
C468        C  0.35702461  0.35241990  0.85816579    -0.22640
C469        C  0.38263156  0.34214639  0.88616478     0.20380
C470        C  0.40263606  0.36597298  0.90574225     0.25410
C471        C  0.39726068  0.40042848  0.89888972    -0.22580
C472        C  0.37170045  0.41119695  0.87225248     0.20310
F473        F  0.36586990  0.44468615  0.86566725    -0.12540
F474        F  0.32809419  0.39984033  0.82610903    -0.14900
F475        F  0.42732152  0.35529777  0.93174419    -0.14900
F476        F  0.38894571  0.30934193  0.89547544    -0.12540
C477        C  0.39503772  0.14380131  0.84007090     0.25470
C478        C  0.36085143  0.15745876  0.85357510    -0.22640
C479        C  0.35715535  0.15552127  0.89235749     0.20380
C480        C  0.37601083  0.13057532  0.91294442     0.25410
C481        C  0.40324894  0.11021901  0.89619186    -0.22580
C482        C  0.41463602  0.11901403  0.86026936     0.20310
F483        F  0.44506905  0.10417210  0.84464959    -0.12540
F484        F  0.41192174  0.15609768  0.80927745    -0.14900
F485        F  0.36905096  0.12774198  0.94959342    -0.14900
F486        F  0.33978216  0.18051401  0.91110126    -0.12540
C487        C  0.10459187  0.36440718  0.91104237     0.25470
C488        C  0.10643921  0.39884378  0.90256337    -0.22640
C489        C  0.13142363  0.40991342  0.87560344     0.20380
C490        C  0.15258489  0.38677458  0.85555883     0.25410
C491        C  0.14754523  0.35120305  0.85975717    -0.22580
C492        C  0.12578704  0.34091500  0.89099739     0.20310
F493        F  0.12702982  0.30910147  0.90508311    -0.12540
F494        F  0.08302177  0.35351596  0.93960708    -0.14900
F495        F  0.17903111  0.39979432  0.83258362    -0.14900
F496        F  0.13596453  0.44348184  0.86908412    -0.12540
C497        C  0.37075409  0.41221355  0.63733557     0.25380
C498        C  0.39370338  0.40350584  0.60758556    -0.22640
C499        C  0.39888934  0.36964008  0.59921075     0.20380
C500        C  0.38096815  0.34438338  0.61966019     0.25410
C501        C  0.35670656  0.35234058  0.64987463    -0.22580
C502        C  0.35268415  0.38712397  0.65829739     0.20310
F503        F  0.33043114  0.39702013  0.68664693    -0.12540
F504        F  0.36555459  0.44515282  0.64594113    -0.14900
F505        F  0.38862779  0.31241197  0.60908365    -0.14900
F506        F  0.42209209  0.36081445  0.57116804    -0.12540
N507        N  0.45675653  0.96296172  0.43162574    -0.04240
N508        N  0.45019506  0.93946183  0.40727710    -0.56360
N509        N  0.43011207  0.54129986  0.45431587    -0.03920
N510        N  0.40688263  0.56680818  0.44744706    -0.58490
N511        N  0.45663411  0.54037254  0.42914326    -0.03520
N512        N  0.45200454  0.56502162  0.40472856    -0.56340
N513        N  0.43017648  0.96346853  0.45683143    -0.03200
N514        N  0.40502642  0.94030232  0.45016702    -0.58840
C515        C  0.41817270  0.92533712  0.41951152     0.97930
C516        C  0.42099811  0.58149230  0.41645833     0.97710
N517        N  0.45380808  0.54196128  0.06669676    -0.04430
N518        N  0.44648737  0.56579379  0.09066908    -0.56940
N519        N  0.42808707  0.96453805  0.04441456    -0.02550
N520        N  0.40207678  0.94237283  0.05332576    -0.58190
N521        N  0.45391452  0.96494631  0.06999523    -0.04460
N522        N  0.44595335  0.94331187  0.09683805    -0.57210
N523        N  0.42791363  0.54156383  0.04125745    -0.02190
N524        N  0.40210692  0.56480221  0.04765706    -0.58280
Mn525      Mn  0.42793254  0.00264764  0.49906352     1.18440
C526        C  0.41435191  0.57991460  0.07825750     1.00010
C527        C  0.41371391  0.92939719  0.08601530     1.00680
N528        N  0.04385468  0.54054249  0.43018834    -0.04480
N529        N  0.05007422  0.56460545  0.40542913    -0.60790
N530        N  0.07098292  0.96353803  0.45843293    -0.03280
N531        N  0.09627965  0.93951739  0.45313120    -0.61460
N532        N  0.04526804  0.96280104  0.43280793    -0.03990
N533        N  0.05263175  0.93841307  0.40945641    -0.61050
N534        N  0.06893717  0.54138895  0.45635705    -0.02880
N535        N  0.09265602  0.56607054  0.45010142    -0.61740
Mn536      Mn  0.50066779  0.00146637  0.42982524     1.10660
C537        C  0.08012999  0.58062852  0.41863559     1.01240
C538        C  0.08411228  0.92377825  0.42285699     1.01310
N539        N  0.04268114  0.96433792  0.06939275    -0.03990
N540        N  0.04861353  0.93973755  0.09356746    -0.59370
N541        N  0.06741896  0.54269381  0.04262234    -0.03310
N542        N  0.08988313  0.56836655  0.04833521    -0.56100
N543        N  0.04076929  0.54197556  0.06761762    -0.04620
N544        N  0.04445277  0.56686223  0.09076475    -0.58930
N545        N  0.06939459  0.96459212  0.04442023    -0.03610
N546        N  0.09394262  0.94011715  0.05102634    -0.56120
Mn547      Mn  0.99795602  0.50311593  0.06935015     1.20190
Mn548      Mn  0.07044474  0.50313258  0.00046889     1.10090
Cl549      Cl  0.99915470  0.50231328  0.99966085    -0.84090
C550        C  0.08056323  0.92465107  0.08174288     0.98240
C551        C  0.07503256  0.58328930  0.07850837     0.98040
C552        C  0.16748616  0.67547577  0.32755535    -0.00610
C553        C  0.16995210  0.82638198  0.33406849    -0.00610
C554        C  0.16559171  0.82644102  0.17170681    -0.00610
C555        C  0.16058394  0.67863467  0.16342036    -0.00610
C556        C  0.33088042  0.67721145  0.32996145    -0.00610
C557        C  0.32508399  0.67826263  0.16360515    -0.00610
C558        C  0.33506798  0.82495368  0.17292329    -0.00610
C559        C  0.33344752  0.82732199  0.33590973    -0.00610
C560        C  0.36923639  0.84777798  0.23444368     0.25470
C561        C  0.34767875  0.82368952  0.21511643    -0.22640
C562        C  0.33506720  0.79716127  0.23810356     0.20380
C563        C  0.32634781  0.80214889  0.27390371     0.25410
C564        C  0.34429942  0.82678357  0.29413553    -0.22580
C565        C  0.36889155  0.84828712  0.27374939     0.20310
F566        F  0.39165260  0.87011300  0.29066859    -0.12540
F567        F  0.39291237  0.86889615  0.21656052    -0.14900
F568        F  0.30008347  0.78186592  0.28914977    -0.14900
F569        F  0.33411491  0.76476206  0.22826333    -0.12540
C570        C  0.36646200  0.73266467  0.16994616     0.25470
C571        C  0.33537210  0.71668133  0.15267816    -0.22640
C572        C  0.31325964  0.73933846  0.13037775     0.20380
C573        C  0.31756019  0.77453512  0.13154341     0.25410
C574        C  0.34237780  0.78903790  0.15624906    -0.22580
C575        C  0.37161579  0.76774846  0.16841098     0.20310
F576        F  0.40130765  0.78078043  0.18609277    -0.12540
F577        F  0.38958527  0.71545745  0.19329495    -0.14900
F578        F  0.29555212  0.79462577  0.10999183    -0.14900
F579        F  0.28636968  0.72944009  0.10763227    -0.12540
C580        C  0.31464253  0.70055133  0.26608092     0.25470
C581        C  0.33739604  0.67767257  0.28639320    -0.22640
C582        C  0.35438930  0.65149183  0.26482723     0.20380
C583        C  0.35424231  0.65257922  0.22578878     0.25410
C584        C  0.33172182  0.67643422  0.20645625    -0.22580
C585        C  0.31066311  0.69879747  0.22824737     0.20310
F586        F  0.28283986  0.71742974  0.21297749    -0.12540
F587        F  0.29002745  0.72091458  0.28354535    -0.14900
F588        F  0.37183626  0.62719424  0.20781085    -0.14900
F589        F  0.36418336  0.62134878  0.28038905    -0.12540
C590        C  0.36704108  0.73410597  0.33074315     0.25470
C591        C  0.33493766  0.71566524  0.34204176    -0.22640
C592        C  0.30916205  0.73435491  0.36390393     0.20380
C593        C  0.31213165  0.76946307  0.36842762     0.25410
C594        C  0.33928884  0.78879871  0.34943027    -0.22580
C595        C  0.36953044  0.76935069  0.33503685     0.20310
F596        F  0.40024178  0.78505055  0.32126585    -0.12540
F597        F  0.39551035  0.71859074  0.31280022    -0.14900
F598        F  0.28991718  0.78315295  0.39440999    -0.14900
F599        F  0.28169441  0.71964193  0.38351372    -0.12540
C600        C  0.22371700  0.66984820  0.12324039     0.25470
C601        C  0.20185968  0.66324495  0.15585533    -0.22640
C602        C  0.22336402  0.64699794  0.18366638     0.20380
C603        C  0.26188981  0.65116178  0.18572049     0.25410
C604        C  0.28216051  0.66927378  0.15833494    -0.22580
C605        C  0.26328643  0.67035618  0.12435053     0.20310
F606        F  0.28284629  0.67148779  0.09220007    -0.12540
F607        F  0.20850374  0.67891929  0.09087710    -0.14900
F608        F  0.28005875  0.63100585  0.21030553    -0.14900
F609        F  0.21074176  0.61977882  0.20235261    -0.12540
C610        C  0.12771271  0.73728928  0.14592472     0.25470
C611        C  0.16089540  0.71777719  0.15279368    -0.22640
C612        C  0.19429804  0.73678558  0.15211862     0.20380
C613        C  0.19374523  0.77109615  0.14363569     0.25410
C614        C  0.16212661  0.79046267  0.15323102    -0.22580
C615        C  0.12790004  0.77308626  0.14922100     0.20310
F616        F  0.09478403  0.78977827  0.15188383    -0.12540
F617        F  0.09429007  0.72199677  0.14209961    -0.14900
F618        F  0.22551009  0.78528628  0.13068440    -0.14900
F619        F  0.22731260  0.72440884  0.16427269    -0.12540
C620        C  0.22976489  0.86006610  0.15691037     0.25470
C621        C  0.20875584  0.83497720  0.17614514    -0.22640
C622        C  0.23050252  0.81239533  0.19780255     0.20380
C623        C  0.26818850  0.80859148  0.19234986     0.25410
C624        C  0.29065194  0.83181279  0.17321544    -0.22580
C625        C  0.26969163  0.85791496  0.15440016     0.20310
F626        F  0.28616168  0.87926888  0.12999608    -0.12540
F627        F  0.21256472  0.88679942  0.14030759    -0.14900
F628        F  0.27975704  0.77686655  0.19811291    -0.14900
F629        F  0.21555624  0.78670920  0.21737274    -0.12540
C630        C  0.15660046  0.79755070  0.27085021     0.25470
C631        C  0.15438058  0.82701318  0.29269484    -0.22640
C632        C  0.14400539  0.85666905  0.27181954     0.20380
C633        C  0.14785688  0.85738018  0.23296990     0.25410
C634        C  0.15088630  0.82708744  0.21279044    -0.22580
C635        C  0.14747978  0.79749680  0.23394816     0.20310
F636        F  0.14982506  0.76725460  0.21841790    -0.12540
F637        F  0.17486380  0.76919709  0.28144861    -0.14900
F638        F  0.14945576  0.88784907  0.21544132    -0.14900
F639        F  0.13224499  0.88556914  0.28733640    -0.12540
C640        C  0.23068351  0.84157620  0.36931922     0.25470
C641        C  0.21143013  0.83893608  0.33519735    -0.22640
C642        C  0.23267609  0.84709160  0.30343471     0.20380
C643        C  0.27110106  0.85004589  0.30522482     0.25410
C644        C  0.29105909  0.83970198  0.33730272    -0.22580
C645        C  0.27015409  0.84278469  0.37013018     0.20310
F646        F  0.28768330  0.84481797  0.40297741    -0.12540
F647        F  0.21198209  0.83861705  0.40175989    -0.14900
F648        F  0.28809956  0.86329415  0.27484155    -0.14900
F649        F  0.21782195  0.85214560  0.26981612    -0.12540
C650        C  0.14884598  0.64372340  0.22626134     0.25470
C651        C  0.15022848  0.67470098  0.20621310    -0.22640
C652        C  0.13511352  0.70112289  0.22682403     0.20380
C653        C  0.13802827  0.70170131  0.26516157     0.25410
C654        C  0.15123836  0.67321435  0.28611553    -0.22580
C655        C  0.14886223  0.64283264  0.26522929     0.20310
F656        F  0.14598350  0.61192823  0.28065837    -0.12540
F657        F  0.14534398  0.61401189  0.20851555    -0.14900
F658        F  0.11950243  0.72773194  0.28017924    -0.14900
F659        F  0.10768404  0.72072150  0.21217656    -0.12540
C660        C  0.22758879  0.66094298  0.36501406     0.25470
C661        C  0.20930664  0.66250507  0.33029029    -0.22640
C662        C  0.23219716  0.65382703  0.30004735     0.20380
C663        C  0.27029701  0.64788209  0.30463155     0.25410
C664        C  0.28976265  0.66072130  0.33515958    -0.22580
C665        C  0.26701274  0.65911443  0.36742128     0.20310
F666        F  0.28119414  0.65644196  0.40154028    -0.12540
F667        F  0.20785659  0.66481938  0.39667528    -0.14900
F668        F  0.28756675  0.62879184  0.27916348    -0.14900
F669        F  0.21991513  0.65302282  0.26526559    -0.12540
C670        C  0.20171149  0.76727611  0.34871066     0.25470
C671        C  0.16885211  0.78784964  0.34774724    -0.22640
C672        C  0.13480265  0.76951961  0.34771611     0.20380
C673        C  0.13423736  0.73371506  0.34659667     0.25410
C674        C  0.16735420  0.71422565  0.33997982    -0.22580
C675        C  0.20085366  0.73302541  0.34124840     0.20310
F676        F  0.23359257  0.72109132  0.32785583    -0.12540
F677        F  0.23633622  0.77990597  0.34632876    -0.14900
F678        F  0.10024259  0.71884741  0.34538627    -0.14900
F679        F  0.10176154  0.78634723  0.34378486    -0.12540
C680        C  0.12450915  0.66182015  0.38611571     0.25470
C681        C  0.14549125  0.65121056  0.35471353    -0.22640
C682        C  0.15044593  0.61551510  0.35223547     0.20380
C683        C  0.12749342  0.59313565  0.37139409     0.25410
C684        C  0.10188777  0.60503364  0.39713492    -0.22580
C685        C  0.10174635  0.63919587  0.40578743     0.20310
F686        F  0.08117787  0.65036216  0.43473542    -0.12540
F687        F  0.12986703  0.69196432  0.40204537    -0.14900
F688        F  0.13211270  0.55940820  0.36654481    -0.14900
F689        F  0.18028777  0.60157145  0.33461597    -0.12540
C690        C  0.15291841  0.85801903  0.11014272     0.25470
C691        C  0.14198852  0.85077134  0.14686821    -0.22640
C692        C  0.10581339  0.86254307  0.15759851     0.20380
C693        C  0.08605963  0.88591820  0.13620269     0.25410
C694        C  0.10018410  0.89708220  0.10219412    -0.22580
C695        C  0.13304965  0.88175730  0.08857264     0.20310
F696        F  0.14600883  0.88953165  0.05434935    -0.12540
F697        F  0.18317171  0.84237148  0.09511242    -0.14900
F698        F  0.05259560  0.89730038  0.14908709    -0.14900
F699        F  0.08764946  0.85027529  0.18775456    -0.12540
C700        C  0.40893897  0.63369594  0.11197857     0.25470
C701        C  0.39241430  0.60474198  0.09892273    -0.22640
C702        C  0.35525263  0.59842111  0.10755975     0.20380
C703        C  0.33487668  0.62031849  0.12986169     0.25410
C704        C  0.34968757  0.65195647  0.14135903    -0.22580
C705        C  0.38796142  0.65745693  0.13152598     0.20310
F706        F  0.40656222  0.68556298  0.13956770    -0.12540
F707        F  0.44557944  0.63966013  0.10476527    -0.14900
F708        F  0.30107618  0.60872132  0.14065116    -0.14900
F709        F  0.33899747  0.56965892  0.09612650    -0.12540
C710        C  0.10004313  0.64243351  0.15482740     0.25470
C711        C  0.13108726  0.65994540  0.13952440    -0.22640
C712        C  0.13296044  0.66002874  0.10061893     0.20380
C713        C  0.11567320  0.63472233  0.08049372     0.25410
C714        C  0.09175400  0.61178785  0.09822193    -0.22580
C715        C  0.08199683  0.61767185  0.13501750     0.20310
F716        F  0.05498590  0.59944207  0.15227691    -0.12540
F717        F  0.08490158  0.65029625  0.18790987    -0.14900
F718        F  0.12037547  0.63412113  0.04345110    -0.14900
F719        F  0.14511457  0.68755962  0.08175551    -0.12540
C720        C  0.35195195  0.88771882  0.35209438     0.25470
C721        C  0.35702820  0.85241977  0.35816410    -0.22640
C722        C  0.38263324  0.84214618  0.38616476     0.20380
C723        C  0.40263758  0.86597267  0.40574261     0.25410
C724        C  0.39726418  0.90042817  0.39888847    -0.22580
C725        C  0.37170624  0.91119673  0.37224915     0.20310
F726        F  0.36587772  0.94468593  0.36566217    -0.12540
F727        F  0.32810147  0.89984024  0.32610427    -0.14900
F728        F  0.42732091  0.85529735  0.43174646    -0.14900
F729        F  0.38894525  0.80934175  0.39547700    -0.12540
C730        C  0.39504020  0.64380097  0.34006991     0.25470
C731        C  0.36085429  0.65745880  0.35357452    -0.22640
C732        C  0.35715879  0.65552169  0.39235696     0.20380
C733        C  0.37601435  0.63057576  0.41294389     0.25410
C734        C  0.40325193  0.61021908  0.39619111    -0.22580
C735        C  0.41463859  0.61901367  0.36026837     0.20310
F736        F  0.44507122  0.60417133  0.34464831    -0.12540
F737        F  0.41192386  0.65609708  0.30927615    -0.14900
F738        F  0.36905506  0.62774284  0.44959302    -0.14900
F739        F  0.33978601  0.68051468  0.41110070    -0.12540
C740        C  0.10459629  0.86440685  0.41104376     0.25470
C741        C  0.10644190  0.89884339  0.40256399    -0.22640
C742        C  0.13142572  0.90991357  0.37560384     0.20380
C743        C  0.15258779  0.88677517  0.35555949     0.25410
C744        C  0.14754895  0.85120355  0.35975777    -0.22580
C745        C  0.12579206  0.84091512  0.39099871     0.20310
F746        F  0.12703727  0.80910194  0.40508528    -0.12540
F747        F  0.08302751  0.85351529  0.43960928    -0.14900
F748        F  0.17903427  0.89979549  0.33258497    -0.14900
F749        F  0.13596558  0.94348208  0.36908428    -0.12540
C750        C  0.37075447  0.91221281  0.13733709     0.25380
C751        C  0.39370152  0.90350554  0.10758524    -0.22640
C752        C  0.39888435  0.86964002  0.09920763     0.20380
C753        C  0.38096311  0.84438319  0.11965676     0.25410
C754        C  0.35670421  0.85234002  0.14987338    -0.22580
C755        C  0.35268385  0.88712314  0.15829808     0.20310
F756        F  0.33043234  0.89701891  0.18664891    -0.12540
F757        F  0.36555762  0.94515184  0.14594501    -0.14900
F758        F  0.38861952  0.81241199  0.10907739    -0.14900
F759        F  0.42208415  0.86081479  0.07116243    -0.12540
N760        N  0.45675382  0.96296165  0.93162620    -0.04240
N761        N  0.45019196  0.93946186  0.90727782    -0.56360
N762        N  0.43010924  0.54129992  0.95431652    -0.03920
N763        N  0.40687996  0.56680807  0.94744778    -0.58490
N764        N  0.45663138  0.54037258  0.92914355    -0.03520
N765        N  0.45200159  0.56502153  0.90472912    -0.56340
N766        N  0.43017369  0.96346869  0.95683214    -0.03200
N767        N  0.40502352  0.94030283  0.95016785    -0.58840
C768        C  0.41816942  0.92533739  0.91951232     0.97930
C769        C  0.42099515  0.58149235  0.91645893     0.97710
N770        N  0.45381023  0.54196122  0.56669634    -0.04430
N771        N  0.44648968  0.56579391  0.59066885    -0.56940
N772        N  0.42808915  0.96453809  0.54441439    -0.02550
N773        N  0.40207845  0.94237299  0.55332580    -0.58190
N774        N  0.45391648  0.96494625  0.56999477    -0.04460
N775        N  0.44595536  0.94331179  0.59683788    -0.57210
N776        N  0.42791604  0.54156389  0.54125718    -0.02190
N777        N  0.40210927  0.56480256  0.54765670    -0.58280
Mn778      Mn  0.42793026  0.00264769  0.99906399     1.18440
C779        C  0.41435439  0.57991481  0.57825713     1.00010
C780        C  0.41371578  0.92939745  0.58601527     1.00680
N781        N  0.04385179  0.54054250  0.93018803    -0.04480
N782        N  0.05007149  0.56460486  0.90542846    -0.60790
N783        N  0.07098065  0.96353835  0.95843283    -0.03280
N784        N  0.09627746  0.93951811  0.95313057    -0.61460
N785        N  0.04526531  0.96280119  0.93280789    -0.03990
N786        N  0.05262910  0.93841350  0.90945634    -0.61050
N787        N  0.06893461  0.54138920  0.95635678    -0.02880
N788        N  0.09265354  0.56607034  0.95010040    -0.61740
Mn789      Mn  0.50066499  0.00146637  0.92982555     1.10660
C790        C  0.08012759  0.58062794  0.91863427     1.01240
C791        C  0.08411006  0.92377890  0.92285633     1.01310
N792        N  0.04268326  0.96433759  0.56939237    -0.03990
N793        N  0.04861537  0.93973690  0.59356731    -0.59370
N794        N  0.06742108  0.54269317  0.54262233    -0.03310
N795        N  0.08988546  0.56836619  0.54833480    -0.56100
N796        N  0.04077166  0.54197510  0.56761720    -0.04620
N797        N  0.04445488  0.56686222  0.59076432    -0.58930
N798        N  0.06939641  0.96459175  0.54442024    -0.03610
N799        N  0.09394464  0.94011647  0.55102617    -0.56120
Mn800      Mn  0.99795813  0.50311570  0.56934997     1.20190
Mn801      Mn  0.07044714  0.50313215  0.50046893     1.10090
Cl802      Cl  0.99915703  0.50231309  0.49966062    -0.84090
C803        C  0.08056493  0.92465055  0.58174251     0.98240
C804        C  0.07503459  0.58328899  0.57850762     0.98040
C805        C  0.16748322  0.67547561  0.82755400    -0.00610
C806        C  0.16994858  0.82638102  0.83406862    -0.00610
C807        C  0.16559347  0.82644076  0.67170679    -0.00610
C808        C  0.16058584  0.67863467  0.66341886    -0.00610
C809        C  0.33087790  0.67721155  0.82996173    -0.00610
C810        C  0.32508582  0.67826292  0.66360516    -0.00610
C811        C  0.33506990  0.82495426  0.67292434    -0.00610
C812        C  0.33344486  0.82732185  0.83591088    -0.00610
C813        C  0.36923494  0.84778033  0.73444568     0.25470
C814        C  0.34768018  0.82369025  0.71511770    -0.22640
C815        C  0.33506979  0.79716127  0.73810462     0.20380
C816        C  0.32634843  0.80214877  0.77390437     0.25410
C817        C  0.34429792  0.82678419  0.79413688    -0.22580
C818        C  0.36888893  0.84828936  0.77375142     0.20310
F819        F  0.39164738  0.87011706  0.79067119    -0.12540
F820        F  0.39290924  0.86890058  0.71656331    -0.14900
F821        F  0.30008439  0.78186486  0.78914942    -0.14900
F822        F  0.33411806  0.76476207  0.72826419    -0.12540
C823        C  0.36646389  0.73266498  0.66994668     0.25470
C824        C  0.33537414  0.71668169  0.65267833    -0.22640
C825        C  0.31326168  0.73933909  0.63037819     0.20380
C826        C  0.31756222  0.77453576  0.63154420     0.25410
C827        C  0.34237973  0.78903842  0.65625001    -0.22580
C828        C  0.37161765  0.76774882  0.66841187     0.20310
F829        F  0.40130928  0.78078065  0.68609418    -0.12540
F830        F  0.38958644  0.71545789  0.69329627    -0.14900
F831        F  0.29555441  0.79462654  0.60999251    -0.14900
F832        F  0.28637159  0.72944101  0.60763270    -0.12540
C833        C  0.31464136  0.70055150  0.76608085     0.25470
C834        C  0.33739436  0.67767269  0.78639360    -0.22640
C835        C  0.35438812  0.65149194  0.76482798     0.20380
C836        C  0.35424243  0.65257953  0.72578953     0.25410
C837        C  0.33172270  0.67643469  0.70645644    -0.22580
C838        C  0.31066341  0.69879799  0.72824708     0.20310
F839        F  0.28284078  0.71743043  0.71297641    -0.12540
F840        F  0.29002514  0.72091409  0.78354486    -0.14900
F841        F  0.37183671  0.62719449  0.70781198    -0.14900
F842        F  0.36418149  0.62134879  0.78038998    -0.12540
C843        C  0.36703865  0.73410600  0.83074367     0.25470
C844        C  0.33493517  0.71566529  0.84204219    -0.22640
C845        C  0.30915983  0.73435481  0.86390484     0.20380
C846        C  0.31212975  0.76946296  0.86842898     0.25410
C847        C  0.33928669  0.78879863  0.84943141    -0.22580
C848        C  0.36952817  0.76935064  0.83503769     0.20310
F849        F  0.40023949  0.78505049  0.82126662    -0.12540
F850        F  0.39550781  0.71859090  0.81280047    -0.14900
F851        F  0.28991653  0.78315283  0.89441241    -0.14900
F852        F  0.28169254  0.71964154  0.88351491    -0.12540
C853        C  0.22371921  0.66984871  0.62323945     0.25470
C854        C  0.20186161  0.66324494  0.65585413    -0.22640
C855        C  0.22336581  0.64699784  0.68366526     0.20380
C856        C  0.26189166  0.65116144  0.68571942     0.25410
C857        C  0.28216243  0.66927404  0.65833440    -0.22580
C858        C  0.26328860  0.67035685  0.62434989     0.20310
F859        F  0.28284869  0.67148898  0.59219958    -0.12540
F860        F  0.20850623  0.67892050  0.59087627    -0.14900
F861        F  0.28006060  0.63100502  0.71030398    -0.14900
F862        F  0.21074307  0.61977947  0.70235246    -0.12540
C863        C  0.12771531  0.73728934  0.64592245     0.25470
C864        C  0.16089771  0.71777715  0.65279224    -0.22640
C865        C  0.19430039  0.73678548  0.65211863     0.20380
C866        C  0.19374793  0.77109612  0.64363619     0.25410
C867        C  0.16212901  0.79046257  0.65323067    -0.22580
C868        C  0.12790256  0.77308620  0.64921960     0.20310
F869        F  0.09478643  0.78977810  0.65188177    -0.12540
F870        F  0.09429276  0.72199697  0.64209610    -0.14900
F871        F  0.22551314  0.78528623  0.63068581    -0.14900
F872        F  0.22731451  0.72440850  0.66427345    -0.12540
C873        C  0.22976659  0.86006598  0.65691020     0.25470
C874        C  0.20875752  0.83497745  0.67614560    -0.22640
C875        C  0.23050438  0.81239605  0.69780348     0.20380
C876        C  0.26819046  0.80859238  0.69235114     0.25410
C877        C  0.29065380  0.83181327  0.67321608    -0.22580
C878        C  0.26969333  0.85791471  0.65439978     0.20310
F879        F  0.28616316  0.87926742  0.62999428    -0.12540
F880        F  0.21256647  0.88679902  0.64030685    -0.14900
F881        F  0.27975934  0.77686772  0.69811522    -0.14900
F882        F  0.21555845  0.78671018  0.71737422    -0.12540
C883        C  0.15660078  0.79754964  0.77084997     0.25470
C884        C  0.15437796  0.82701182  0.79269478    -0.22640
C885        C  0.14400236  0.85666746  0.77181941     0.20380
C886        C  0.14785568  0.85737904  0.73296990     0.25410
C887        C  0.15088717  0.82708651  0.71279021    -0.22580
C888        C  0.14748143  0.79749553  0.73394759     0.20310
F889        F  0.14982912  0.76725349  0.71841712    -0.12540
F890        F  0.17486586  0.76919709  0.78144903    -0.14900
F891        F  0.14945418  0.88784816  0.71544175    -0.14900
F892        F  0.13223976  0.88556689  0.78733630    -0.12540
C893        C  0.23067998  0.84157623  0.86931930     0.25470
C894        C  0.21142688  0.83893467  0.83519744    -0.22640
C895        C  0.23267317  0.84708910  0.80343468     0.20380
C896        C  0.27109806  0.85004350  0.80522488     0.25410
C897        C  0.29105598  0.83970069  0.83730320    -0.22580
C898        C  0.27015065  0.84278407  0.87013048     0.20310
F899        F  0.28767956  0.84481820  0.90297777    -0.12540
F900        F  0.21197824  0.83861855  0.90175994    -0.14900
F901        F  0.28809645  0.86329160  0.77484148    -0.14900
F902        F  0.21781931  0.85214271  0.76981593    -0.12540
C903        C  0.14884646  0.64372340  0.72625960     0.25470
C904        C  0.15022972  0.67470101  0.70621142    -0.22640
C905        C  0.13511405  0.70112292  0.72682188     0.20380
C906        C  0.13802759  0.70170145  0.76515942     0.25410
C907        C  0.15123631  0.67321433  0.78611392    -0.22580
C908        C  0.14886097  0.64283261  0.76522758     0.20310
F909        F  0.14598067  0.61192832  0.78065665    -0.12540
F910        F  0.14534508  0.61401191  0.70851362    -0.14900
F911        F  0.11950262  0.72773299  0.78017618    -0.14900
F912        F  0.10768552  0.72072207  0.71217354    -0.12540
C913        C  0.22758562  0.66094230  0.86501304     0.25470
C914        C  0.20930381  0.66250527  0.83028910    -0.22640
C915        C  0.23219480  0.65382865  0.80004602     0.20380
C916        C  0.27029446  0.64788318  0.80463056     0.25410
C917        C  0.28975989  0.66072162  0.83515913    -0.22580
C918        C  0.26700960  0.65911423  0.86742060     0.20310
F919        F  0.28119064  0.65644107  0.90153969    -0.12540
F920        F  0.20785302  0.66481761  0.89667421    -0.14900
F921        F  0.28756427  0.62879357  0.77916199    -0.14900
F922        F  0.21991360  0.65302706  0.76526380    -0.12540
C923        C  0.20170673  0.76727527  0.84871447     0.25470
C924        C  0.16884755  0.78784886  0.84774784    -0.22640
C925        C  0.13479811  0.76951888  0.84771429     0.20380
C926        C  0.13423307  0.73371435  0.84659445     0.25410
C927        C  0.16735043  0.71422525  0.83997897    -0.22580
C928        C  0.20084969  0.73302499  0.84125039     0.20310
F929        F  0.23358950  0.72109178  0.82785887    -0.12540
F930        F  0.23633174  0.77990485  0.84633802    -0.14900
F931        F  0.10023852  0.71884645  0.84538208    -0.14900
F932        F  0.10175723  0.78634655  0.84378128    -0.12540
C933        C  0.12450524  0.66181974  0.88611355     0.25470
C934        C  0.14548807  0.65121020  0.85471176    -0.22640
C935        C  0.15044322  0.61551476  0.85223390     0.20380
C936        C  0.12749108  0.59313513  0.87139274     0.25410
C937        C  0.10188502  0.60503296  0.89713332    -0.22580
C938        C  0.10174266  0.63919531  0.90578522     0.20310
F939        F  0.08117344  0.65036163  0.93473271    -0.12540
F940        F  0.12986206  0.69196416  0.90204301    -0.14900
F941        F  0.13211098  0.55940768  0.86654389    -0.14900
F942        F  0.18028515  0.60157139  0.83461426    -0.12540
C943        C  0.15292028  0.85801864  0.61014259     0.25470
C944        C  0.14199018  0.85077087  0.64686798    -0.22640
C945        C  0.10581466  0.86254201  0.65759783     0.20380
C946        C  0.08606089  0.88591710  0.63620194     0.25410
C947        C  0.10018577  0.89708144  0.60219373    -0.22580
C948        C  0.13305152  0.88175686  0.58857241     0.20310
F949        F  0.14601096  0.88953140  0.55434928    -0.12540
F950        F  0.18317371  0.84237119  0.59511240    -0.14900
F951        F  0.05259650  0.89729875  0.64908593    -0.14900
F952        F  0.08765029  0.85027359  0.68775329    -0.12540
C953        C  0.40894169  0.63369547  0.61198014     0.25470
C954        C  0.39241669  0.60474231  0.59892258    -0.22640
C955        C  0.35525459  0.59842204  0.60755821     0.20380
C956        C  0.33487846  0.62031920  0.62986032     0.25410
C957        C  0.34968970  0.65195655  0.64135931    -0.22580
C958        C  0.38796408  0.65745631  0.63152788     0.20310
F959        F  0.40656545  0.68556148  0.63957170    -0.12540
F960        F  0.44558257  0.63965906  0.60476837    -0.14900
F961        F  0.30107747  0.60872219  0.64064844    -0.14900
F962        F  0.33899903  0.56966055  0.59612352    -0.12540
C963        C  0.10004454  0.64243436  0.65482566     0.25470
C964        C  0.13108920  0.65994555  0.63952276    -0.22640
C965        C  0.13296288  0.66002836  0.60061734     0.20380
C966        C  0.11567562  0.63472180  0.58049240     0.25410
C967        C  0.09175596  0.61178790  0.59822080    -0.22580
C968        C  0.08199822  0.61767257  0.63501602     0.20310
F969        F  0.05498681  0.59944338  0.65227542    -0.12540
F970        F  0.08490254  0.65029781  0.68790772    -0.14900
F971        F  0.12037837  0.63411999  0.54344985    -0.14900
F972        F  0.14511713  0.68755899  0.58175359    -0.12540
C973        C  0.35194629  0.88771896  0.85209774     0.25470
C974        C  0.35702461  0.85241990  0.85816579    -0.22640
C975        C  0.38263157  0.84214639  0.88616478     0.20380
C976        C  0.40263606  0.86597298  0.90574225     0.25410
C977        C  0.39726068  0.90042848  0.89888973    -0.22580
C978        C  0.37170044  0.91119695  0.87225249     0.20310
F979        F  0.36586988  0.94468615  0.86566727    -0.12540
F980        F  0.32809417  0.89984033  0.82610904    -0.14900
F981        F  0.42732153  0.85529777  0.93174418    -0.14900
F982        F  0.38894572  0.80934193  0.89547543    -0.12540
C983        C  0.39503771  0.64380131  0.84007089     0.25470
C984        C  0.36085142  0.65745876  0.85357510    -0.22640
C985        C  0.35715534  0.65552126  0.89235749     0.20380
C986        C  0.37601082  0.63057532  0.91294442     0.25410
C987        C  0.40324894  0.61021901  0.89619186    -0.22580
C988        C  0.41463601  0.61901403  0.86026936     0.20310
F989        F  0.44506904  0.60417210  0.84464958    -0.12540
F990        F  0.41192173  0.65609768  0.80927745    -0.14900
F991        F  0.36905096  0.62774198  0.94959342    -0.14900
F992        F  0.33978215  0.68051400  0.91110126    -0.12540
C993        C  0.10459187  0.86440718  0.91104236     0.25470
C994        C  0.10643921  0.89884378  0.90256336    -0.22640
C995        C  0.13142363  0.90991342  0.87560344     0.20380
C996        C  0.15258489  0.88677458  0.85555883     0.25410
C997        C  0.14754523  0.85120305  0.85975717    -0.22580
C998        C  0.12578704  0.84091500  0.89099739     0.20310
F999        F  0.12702982  0.80910147  0.90508310    -0.12540
F1000       F  0.08302177  0.85351596  0.93960707    -0.14900
F1001       F  0.17903111  0.89979432  0.83258362    -0.14900
F1002       F  0.13596454  0.94348184  0.86908411    -0.12540
C1003       C  0.37075408  0.91221355  0.63733557     0.25380
C1004       C  0.39370339  0.90350585  0.60758556    -0.22640
C1005       C  0.39888935  0.86964008  0.59921076     0.20380
C1006       C  0.38096817  0.84438338  0.61966020     0.25410
C1007       C  0.35670657  0.85234059  0.64987463    -0.22580
C1008       C  0.35268415  0.88712398  0.65829738     0.20310
F1009       F  0.33043113  0.89702013  0.68664693    -0.12540
F1010       F  0.36555458  0.94515282  0.64594111    -0.14900
F1011       F  0.38862782  0.81241197  0.60908367    -0.14900
F1012       F  0.42209211  0.86081445  0.57116805    -0.12540
N1013       N  0.95675653  0.46296172  0.43162574    -0.04240
N1014       N  0.95019506  0.43946183  0.40727709    -0.56360
N1015       N  0.93011207  0.04129986  0.45431587    -0.03920
N1016       N  0.90688263  0.06680818  0.44744706    -0.58490
N1017       N  0.95663411  0.04037254  0.42914326    -0.03520
N1018       N  0.95200455  0.06502162  0.40472856    -0.56340
N1019       N  0.93017648  0.46346853  0.45683143    -0.03200
N1020       N  0.90502642  0.44030232  0.45016702    -0.58840
C1021       C  0.91817270  0.42533712  0.41951152     0.97930
C1022       C  0.92099811  0.08149231  0.41645834     0.97710
N1023       N  0.95380808  0.04196128  0.06669676    -0.04430
N1024       N  0.94648737  0.06579378  0.09066909    -0.56940
N1025       N  0.92808707  0.46453805  0.04441456    -0.02550
N1026       N  0.90207678  0.44237282  0.05332576    -0.58190
N1027       N  0.95391451  0.46494631  0.06999523    -0.04460
N1028       N  0.94595335  0.44331187  0.09683805    -0.57210
N1029       N  0.92791363  0.04156383  0.04125745    -0.02190
N1030       N  0.90210692  0.06480221  0.04765707    -0.58280
Mn1031     Mn  0.92793254  0.50264764  0.49906351     1.18440
C1032       C  0.91435191  0.07991459  0.07825751     1.00010
C1033       C  0.91371390  0.42939719  0.08601530     1.00680
N1034       N  0.54385468  0.04054249  0.43018834    -0.04480
N1035       N  0.55007422  0.06460545  0.40542912    -0.60790
N1036       N  0.57098292  0.46353803  0.45843294    -0.03280
N1037       N  0.59627965  0.43951739  0.45313120    -0.61460
N1038       N  0.54526804  0.46280104  0.43280793    -0.03990
N1039       N  0.55263174  0.43841307  0.40945641    -0.61050
N1040       N  0.56893717  0.04138895  0.45635704    -0.02880
N1041       N  0.59265602  0.06607054  0.45010141    -0.61740
Mn1042     Mn  0.00066779  0.50146637  0.42982524     1.10660
C1043       C  0.58012999  0.08062852  0.41863559     1.01240
C1044       C  0.58411228  0.42377825  0.42285700     1.01310
N1045       N  0.54268114  0.46433793  0.06939275    -0.03990
N1046       N  0.54861353  0.43973755  0.09356747    -0.59370
N1047       N  0.56741897  0.04269381  0.04262234    -0.03310
N1048       N  0.58988314  0.06836655  0.04833521    -0.56100
N1049       N  0.54076929  0.04197556  0.06761762    -0.04620
N1050       N  0.54445278  0.06686224  0.09076474    -0.58930
N1051       N  0.56939459  0.46459213  0.04442023    -0.03610
N1052       N  0.59394262  0.44011715  0.05102634    -0.56120
Mn1053     Mn  0.49795602  0.00311593  0.06935015     1.20190
Mn1054     Mn  0.57044474  0.00313258  0.00046889     1.10090
Cl1055     Cl  0.49915470  0.00231328  0.99966085    -0.84090
C1056       C  0.58056323  0.42465107  0.08174288     0.98240
C1057       C  0.57503257  0.08328930  0.07850837     0.98040
C1058       C  0.66748616  0.17547577  0.32755534    -0.00610
C1059       C  0.66995210  0.32638198  0.33406849    -0.00610
C1060       C  0.66559171  0.32644102  0.17170681    -0.00610
C1061       C  0.66058394  0.17863467  0.16342035    -0.00610
C1062       C  0.83088042  0.17721145  0.32996146    -0.00610
C1063       C  0.82508400  0.17826263  0.16360515    -0.00610
C1064       C  0.83506797  0.32495367  0.17292329    -0.00610
C1065       C  0.83344752  0.32732199  0.33590973    -0.00610
C1066       C  0.86923640  0.34777797  0.23444367     0.25470
C1067       C  0.84767875  0.32368952  0.21511642    -0.22640
C1068       C  0.83506718  0.29716127  0.23810356     0.20380
C1069       C  0.82634779  0.30214890  0.27390371     0.25410
C1070       C  0.84429942  0.32678357  0.29413553    -0.22580
C1071       C  0.86889155  0.34828711  0.27374939     0.20310
F1072       F  0.89165262  0.37011298  0.29066859    -0.12540
F1073       F  0.89291239  0.36889612  0.21656051    -0.14900
F1074       F  0.80008345  0.28186593  0.28914977    -0.14900
F1075       F  0.83411489  0.26476207  0.22826333    -0.12540
C1076       C  0.86646200  0.23266467  0.16994616     0.25470
C1077       C  0.83537210  0.21668133  0.15267816    -0.22640
C1078       C  0.81325964  0.23933846  0.13037774     0.20380
C1079       C  0.81756019  0.27453512  0.13154341     0.25410
C1080       C  0.84237780  0.28903789  0.15624906    -0.22580
C1081       C  0.87161579  0.26774846  0.16841098     0.20310
F1082       F  0.90130765  0.28078043  0.18609278    -0.12540
F1083       F  0.88958529  0.21545744  0.19329493    -0.14900
F1084       F  0.79555213  0.29462577  0.10999183    -0.14900
F1085       F  0.78636968  0.22944009  0.10763227    -0.12540
C1086       C  0.81464253  0.20055133  0.26608092     0.25470
C1087       C  0.83739604  0.17767257  0.28639320    -0.22640
C1088       C  0.85438931  0.15149183  0.26482723     0.20380
C1089       C  0.85424232  0.15257923  0.22578878     0.25410
C1090       C  0.83172183  0.17643422  0.20645625    -0.22580
C1091       C  0.81066312  0.19879747  0.22824737     0.20310
F1092       F  0.78283985  0.21742973  0.21297749    -0.12540
F1093       F  0.79002745  0.22091458  0.28354535    -0.14900
F1094       F  0.87183628  0.12719425  0.20781085    -0.14900
F1095       F  0.86418337  0.12134879  0.28038905    -0.12540
C1096       C  0.86704108  0.23410597  0.33074315     0.25470
C1097       C  0.83493766  0.21566524  0.34204176    -0.22640
C1098       C  0.80916205  0.23435491  0.36390393     0.20380
C1099       C  0.81213165  0.26946307  0.36842762     0.25410
C1100       C  0.83928883  0.28879872  0.34943027    -0.22580
C1101       C  0.86953044  0.26935070  0.33503685     0.20310
F1102       F  0.90024178  0.28505055  0.32126585    -0.12540
F1103       F  0.89551035  0.21859075  0.31280022    -0.14900
F1104       F  0.78991718  0.28315295  0.39440998    -0.14900
F1105       F  0.78169442  0.21964193  0.38351372    -0.12540
C1106       C  0.72371701  0.16984819  0.12324038     0.25470
C1107       C  0.70185968  0.16324496  0.15585533    -0.22640
C1108       C  0.72336402  0.14699794  0.18366638     0.20380
C1109       C  0.76188981  0.15116178  0.18572050     0.25410
C1110       C  0.78216051  0.16927378  0.15833494    -0.22580
C1111       C  0.76328644  0.17035617  0.12435053     0.20310
F1112       F  0.78284630  0.17148778  0.09220007    -0.12540
F1113       F  0.70850375  0.17891928  0.09087709    -0.14900
F1114       F  0.78005875  0.13100586  0.21030554    -0.14900
F1115       F  0.71074176  0.11977883  0.20235261    -0.12540
C1116       C  0.62771271  0.23728928  0.14592472     0.25470
C1117       C  0.66089540  0.21777719  0.15279367    -0.22640
C1118       C  0.69429804  0.23678558  0.15211861     0.20380
C1119       C  0.69374523  0.27109616  0.14363567     0.25410
C1120       C  0.66212660  0.29046267  0.15323102    -0.22580
C1121       C  0.62790004  0.27308626  0.14922100     0.20310
F1122       F  0.59478402  0.28977827  0.15188383    -0.12540
F1123       F  0.59429008  0.22199677  0.14209961    -0.14900
F1124       F  0.72551009  0.28528629  0.13068438    -0.14900
F1125       F  0.72731260  0.22440885  0.16427266    -0.12540
C1126       C  0.72976489  0.36006611  0.15691037     0.25470
C1127       C  0.70875584  0.33497720  0.17614513    -0.22640
C1128       C  0.73050251  0.31239532  0.19780255     0.20380
C1129       C  0.76818849  0.30859147  0.19234985     0.25410
C1130       C  0.79065193  0.33181279  0.17321543    -0.22580
C1131       C  0.76969163  0.35791497  0.15440016     0.20310
F1132       F  0.78616168  0.37926889  0.12999610    -0.12540
F1133       F  0.71256472  0.38679943  0.14030760    -0.14900
F1134       F  0.77975703  0.27686655  0.19811289    -0.14900
F1135       F  0.71555624  0.28670919  0.21737273    -0.12540
C1136       C  0.65660046  0.29755070  0.27085020     0.25470
C1137       C  0.65438058  0.32701318  0.29269484    -0.22640
C1138       C  0.64400539  0.35666905  0.27181954     0.20380
C1139       C  0.64785687  0.35738018  0.23296990     0.25410
C1140       C  0.65088630  0.32708744  0.21279044    -0.22580
C1141       C  0.64747978  0.29749680  0.23394815     0.20310
F1142       F  0.64982506  0.26725460  0.21841789    -0.12540
F1143       F  0.67486381  0.26919709  0.28144861    -0.14900
F1144       F  0.64945576  0.38784908  0.21544131    -0.14900
F1145       F  0.63224499  0.38556914  0.28733640    -0.12540
C1146       C  0.73068350  0.34157620  0.36931922     0.25470
C1147       C  0.71143013  0.33893608  0.33519735    -0.22640
C1148       C  0.73267609  0.34709161  0.30343471     0.20380
C1149       C  0.77110106  0.35004590  0.30522482     0.25410
C1150       C  0.79105909  0.33970198  0.33730272    -0.22580
C1151       C  0.77015409  0.34278469  0.37013018     0.20310
F1152       F  0.78768330  0.34481797  0.40297741    -0.12540
F1153       F  0.71198209  0.33861705  0.40175989    -0.14900
F1154       F  0.78809956  0.36329417  0.27484155    -0.14900
F1155       F  0.71782195  0.35214561  0.26981612    -0.12540
C1156       C  0.64884598  0.14372340  0.22626133     0.25470
C1157       C  0.65022848  0.17470098  0.20621309    -0.22640
C1158       C  0.63511352  0.20112289  0.22682403     0.20380
C1159       C  0.63802828  0.20170131  0.26516157     0.25410
C1160       C  0.65123837  0.17321435  0.28611553    -0.22580
C1161       C  0.64886224  0.14283264  0.26522928     0.20310
F1162       F  0.64598350  0.11192823  0.28065836    -0.12540
F1163       F  0.64534398  0.11401189  0.20851555    -0.14900
F1164       F  0.61950244  0.22773194  0.28017923    -0.14900
F1165       F  0.60768405  0.22072150  0.21217655    -0.12540
C1166       C  0.72758879  0.16094299  0.36501406     0.25470
C1167       C  0.70930664  0.16250507  0.33029029    -0.22640
C1168       C  0.73219717  0.15382703  0.30004735     0.20380
C1169       C  0.77029702  0.14788209  0.30463155     0.25410
C1170       C  0.78976266  0.16072130  0.33515958    -0.22580
C1171       C  0.76701275  0.15911443  0.36742128     0.20310
F1172       F  0.78119415  0.15644197  0.40154028    -0.12540
F1173       F  0.70785659  0.16481939  0.39667528    -0.14900
F1174       F  0.78756675  0.12879183  0.27916348    -0.14900
F1175       F  0.71991513  0.15302281  0.26526559    -0.12540
C1176       C  0.70171150  0.26727611  0.34871065     0.25470
C1177       C  0.66885212  0.28784964  0.34774724    -0.22640
C1178       C  0.63480265  0.26951961  0.34771611     0.20380
C1179       C  0.63423736  0.23371506  0.34659666     0.25410
C1180       C  0.66735421  0.21422565  0.33997981    -0.22580
C1181       C  0.70085366  0.23302541  0.34124839     0.20310
F1182       F  0.73359257  0.22109133  0.32785582    -0.12540
F1183       F  0.73633622  0.27990597  0.34632875    -0.14900
F1184       F  0.60024259  0.21884741  0.34538627    -0.14900
F1185       F  0.60176154  0.28634723  0.34378486    -0.12540
C1186       C  0.62450915  0.16182015  0.38611570     0.25470
C1187       C  0.64549126  0.15121056  0.35471352    -0.22640
C1188       C  0.65044593  0.11551510  0.35223547     0.20380
C1189       C  0.62749342  0.09313565  0.37139408     0.25410
C1190       C  0.60188778  0.10503364  0.39713491    -0.22580
C1191       C  0.60174635  0.13919587  0.40578743     0.20310
F1192       F  0.58117787  0.15036216  0.43473541    -0.12540
F1193       F  0.62986703  0.19196432  0.40204537    -0.14900
F1194       F  0.63211270  0.05940820  0.36654481    -0.14900
F1195       F  0.68028777  0.10157145  0.33461596    -0.12540
C1196       C  0.65291842  0.35801904  0.11014272     0.25470
C1197       C  0.64198852  0.35077134  0.14686820    -0.22640
C1198       C  0.60581339  0.36254307  0.15759851     0.20380
C1199       C  0.58605963  0.38591820  0.13620269     0.25410
C1200       C  0.60018410  0.39708221  0.10219412    -0.22580
C1201       C  0.63304965  0.38175731  0.08857264     0.20310
F1202       F  0.64600883  0.38953166  0.05434935    -0.12540
F1203       F  0.68317172  0.34237149  0.09511242    -0.14900
F1204       F  0.55259560  0.39730038  0.14908708    -0.14900
F1205       F  0.58764946  0.35027529  0.18775455    -0.12540
C1206       C  0.90893896  0.13369596  0.11197853     0.25470
C1207       C  0.89241431  0.10474197  0.09892274    -0.22640
C1208       C  0.85525265  0.09842109  0.10755980     0.20380
C1209       C  0.83487669  0.12031848  0.12986173     0.25410
C1210       C  0.84968758  0.15195647  0.14135903    -0.22580
C1211       C  0.88796141  0.15745696  0.13152594     0.20310
F1212       F  0.90656219  0.18556303  0.13956759    -0.12540
F1213       F  0.94557942  0.13966017  0.10476519    -0.14900
F1214       F  0.80107621  0.10872130  0.14065124    -0.14900
F1215       F  0.83899750  0.06965888  0.09612658    -0.12540
C1216       C  0.60004314  0.14243352  0.15482740     0.25470
C1217       C  0.63108727  0.15994540  0.13952439    -0.22640
C1218       C  0.63296045  0.16002874  0.10061892     0.20380
C1219       C  0.61567321  0.13472233  0.08049372     0.25410
C1220       C  0.59175401  0.11178785  0.09822193    -0.22580
C1221       C  0.58199683  0.11767186  0.13501749     0.20310
F1222       F  0.55498591  0.09944208  0.15227690    -0.12540
F1223       F  0.58490158  0.15029625  0.18790987    -0.14900
F1224       F  0.62037548  0.13412113  0.04345109    -0.14900
F1225       F  0.64511458  0.18755961  0.08175550    -0.12540
C1226       C  0.85195196  0.38771882  0.35209437     0.25470
C1227       C  0.85702821  0.35241978  0.35816409    -0.22640
C1228       C  0.88263323  0.34214618  0.38616476     0.20380
C1229       C  0.90263757  0.36597267  0.40574262     0.25410
C1230       C  0.89726418  0.40042817  0.39888846    -0.22580
C1231       C  0.87170625  0.41119673  0.37224914     0.20310
F1232       F  0.86587775  0.44468593  0.36566215    -0.12540
F1233       F  0.82810149  0.39984024  0.32610425    -0.14900
F1234       F  0.92732089  0.35529734  0.43174647    -0.14900
F1235       F  0.88894523  0.30934175  0.39547702    -0.12540
C1236       C  0.89504021  0.14380097  0.34006992     0.25470
C1237       C  0.86085430  0.15745880  0.35357452    -0.22640
C1238       C  0.85715879  0.15552169  0.39235696     0.20380
C1239       C  0.87601435  0.13057577  0.41294389     0.25410
C1240       C  0.90325193  0.11021908  0.39619111    -0.22580
C1241       C  0.91463859  0.11901368  0.36026837     0.20310
F1242       F  0.94507122  0.10417134  0.34464832    -0.12540
F1243       F  0.91192387  0.15609708  0.30927615    -0.14900
F1244       F  0.86905506  0.12774284  0.44959302    -0.14900
F1245       F  0.83978601  0.18051469  0.41110070    -0.12540
C1246       C  0.60459629  0.36440685  0.41104376     0.25470
C1247       C  0.60644190  0.39884339  0.40256399    -0.22640
C1248       C  0.63142572  0.40991357  0.37560384     0.20380
C1249       C  0.65258779  0.38677517  0.35555949     0.25410
C1250       C  0.64754895  0.35120355  0.35975777    -0.22580
C1251       C  0.62579206  0.34091512  0.39099871     0.20310
F1252       F  0.62703727  0.30910194  0.40508527    -0.12540
F1253       F  0.58302751  0.35351529  0.43960928    -0.14900
F1254       F  0.67903427  0.39979549  0.33258497    -0.14900
F1255       F  0.63596557  0.44348208  0.36908428    -0.12540
C1256       C  0.87075448  0.41221281  0.13733710     0.25380
C1257       C  0.89370151  0.40350554  0.10758524    -0.22640
C1258       C  0.89888433  0.36964002  0.09920762     0.20380
C1259       C  0.88096309  0.34438318  0.11965675     0.25410
C1260       C  0.85670421  0.35234002  0.14987338    -0.22580
C1261       C  0.85268386  0.38712314  0.15829808     0.20310
F1262       F  0.83043235  0.39701890  0.18664893    -0.12540
F1263       F  0.86555765  0.44515184  0.14594503    -0.14900
F1264       F  0.88861948  0.31241199  0.10907736    -0.14900
F1265       F  0.92208411  0.36081479  0.07116241    -0.12540
N1266       N  0.95675382  0.46296165  0.93162620    -0.04240
N1267       N  0.95019196  0.43946186  0.90727782    -0.56360
N1268       N  0.93010925  0.04129992  0.95431653    -0.03920
N1269       N  0.90687996  0.06680807  0.94744778    -0.58490
N1270       N  0.95663138  0.04037258  0.92914356    -0.03520
N1271       N  0.95200159  0.06502153  0.90472912    -0.56340
N1272       N  0.93017369  0.46346869  0.95683214    -0.03200
N1273       N  0.90502352  0.44030283  0.95016785    -0.58840
C1274       C  0.91816942  0.42533739  0.91951232     0.97930
C1275       C  0.92099515  0.08149235  0.91645893     0.97710
N1276       N  0.95381023  0.04196122  0.56669634    -0.04430
N1277       N  0.94648968  0.06579391  0.59066886    -0.56940
N1278       N  0.92808914  0.46453808  0.54441439    -0.02550
N1279       N  0.90207845  0.44237298  0.55332580    -0.58190
N1280       N  0.95391648  0.46494625  0.56999477    -0.04460
N1281       N  0.94595536  0.44331179  0.59683788    -0.57210
N1282       N  0.92791604  0.04156389  0.54125718    -0.02190
N1283       N  0.90210927  0.06480256  0.54765671    -0.58280
Mn1284     Mn  0.92793026  0.50264768  0.99906399     1.18440
C1285       C  0.91435439  0.07991481  0.57825713     1.00010
C1286       C  0.91371577  0.42939745  0.58601527     1.00680
N1287       N  0.54385179  0.04054250  0.93018803    -0.04480
N1288       N  0.55007149  0.06460486  0.90542846    -0.60790
N1289       N  0.57098065  0.46353835  0.95843283    -0.03280
N1290       N  0.59627746  0.43951811  0.95313057    -0.61460
N1291       N  0.54526531  0.46280119  0.93280789    -0.03990
N1292       N  0.55262910  0.43841351  0.90945634    -0.61050
N1293       N  0.56893462  0.04138920  0.95635678    -0.02880
N1294       N  0.59265355  0.06607034  0.95010040    -0.61740
Mn1295     Mn  0.00066499  0.50146637  0.92982555     1.10660
C1296       C  0.58012759  0.08062794  0.91863427     1.01240
C1297       C  0.58411006  0.42377890  0.92285633     1.01310
N1298       N  0.54268325  0.46433759  0.56939237    -0.03990
N1299       N  0.54861537  0.43973690  0.59356732    -0.59370
N1300       N  0.56742108  0.04269317  0.54262232    -0.03310
N1301       N  0.58988546  0.06836619  0.54833479    -0.56100
N1302       N  0.54077166  0.04197510  0.56761720    -0.04620
N1303       N  0.54445488  0.06686222  0.59076431    -0.58930
N1304       N  0.56939641  0.46459175  0.54442025    -0.03610
N1305       N  0.59394464  0.44011646  0.55102617    -0.56120
Mn1306     Mn  0.49795813  0.00311570  0.56934996     1.20190
Mn1307     Mn  0.57044714  0.00313215  0.50046893     1.10090
Cl1308     Cl  0.49915703  0.00231309  0.49966062    -0.84090
C1309       C  0.58056492  0.42465054  0.58174251     0.98240
C1310       C  0.57503460  0.08328899  0.57850762     0.98040
C1311       C  0.66748322  0.17547561  0.82755399    -0.00610
C1312       C  0.66994858  0.32638102  0.83406862    -0.00610
C1313       C  0.66559346  0.32644076  0.67170680    -0.00610
C1314       C  0.66058584  0.17863467  0.66341886    -0.00610
C1315       C  0.83087791  0.17721155  0.82996173    -0.00610
C1316       C  0.82508583  0.17826292  0.66360516    -0.00610
C1317       C  0.83506990  0.32495426  0.67292434    -0.00610
C1318       C  0.83344486  0.32732185  0.83591088    -0.00610
C1319       C  0.86923494  0.34778033  0.73444568     0.25470
C1320       C  0.84768018  0.32369025  0.71511770    -0.22640
C1321       C  0.83506978  0.29716127  0.73810462     0.20380
C1322       C  0.82634842  0.30214877  0.77390437     0.25410
C1323       C  0.84429792  0.32678419  0.79413688    -0.22580
C1324       C  0.86888893  0.34828935  0.77375142     0.20310
F1325       F  0.89164739  0.37011705  0.79067119    -0.12540
F1326       F  0.89290924  0.36890056  0.71656331    -0.14900
F1327       F  0.80008438  0.28186486  0.78914942    -0.14900
F1328       F  0.83411805  0.26476207  0.72826419    -0.12540
C1329       C  0.86646389  0.23266497  0.66994668     0.25470
C1330       C  0.83537414  0.21668169  0.65267833    -0.22640
C1331       C  0.81326168  0.23933909  0.63037819     0.20380
C1332       C  0.81756222  0.27453576  0.63154420     0.25410
C1333       C  0.84237973  0.28903841  0.65625001    -0.22580
C1334       C  0.87161765  0.26774882  0.66841187     0.20310
F1335       F  0.90130928  0.28078065  0.68609418    -0.12540
F1336       F  0.88958645  0.21545788  0.69329626    -0.14900
F1337       F  0.79555441  0.29462654  0.60999251    -0.14900
F1338       F  0.78637159  0.22944101  0.60763270    -0.12540
C1339       C  0.81464136  0.20055150  0.76608086     0.25470
C1340       C  0.83739436  0.17767269  0.78639360    -0.22640
C1341       C  0.85438813  0.15149195  0.76482799     0.20380
C1342       C  0.85424244  0.15257953  0.72578953     0.25410
C1343       C  0.83172270  0.17643470  0.70645644    -0.22580
C1344       C  0.81066341  0.19879799  0.72824708     0.20310
F1345       F  0.78284078  0.21743042  0.71297641    -0.12540
F1346       F  0.79002514  0.22091409  0.78354486    -0.14900
F1347       F  0.87183672  0.12719450  0.70781198    -0.14900
F1348       F  0.86418149  0.12134880  0.78038998    -0.12540
C1349       C  0.86703865  0.23410600  0.83074367     0.25470
C1350       C  0.83493517  0.21566529  0.84204219    -0.22640
C1351       C  0.80915983  0.23435481  0.86390484     0.20380
C1352       C  0.81212975  0.26946296  0.86842898     0.25410
C1353       C  0.83928669  0.28879863  0.84943141    -0.22580
C1354       C  0.86952817  0.26935064  0.83503769     0.20310
F1355       F  0.90023949  0.28505049  0.82126662    -0.12540
F1356       F  0.89550781  0.21859090  0.81280047    -0.14900
F1357       F  0.78991653  0.28315283  0.89441241    -0.14900
F1358       F  0.78169254  0.21964154  0.88351492    -0.12540
C1359       C  0.72371922  0.16984870  0.62323945     0.25470
C1360       C  0.70186161  0.16324494  0.65585413    -0.22640
C1361       C  0.72336582  0.14699784  0.68366526     0.20380
C1362       C  0.76189166  0.15116144  0.68571942     0.25410
C1363       C  0.78216243  0.16927404  0.65833440    -0.22580
C1364       C  0.76328861  0.17035684  0.62434989     0.20310
F1365       F  0.78284870  0.17148897  0.59219958    -0.12540
F1366       F  0.70850624  0.17892049  0.59087626    -0.14900
F1367       F  0.78006060  0.13100502  0.71030399    -0.14900
F1368       F  0.71074308  0.11977947  0.70235246    -0.12540
C1369       C  0.62771531  0.23728934  0.64592245     0.25470
C1370       C  0.66089771  0.21777715  0.65279224    -0.22640
C1371       C  0.69430039  0.23678548  0.65211862     0.20380
C1372       C  0.69374793  0.27109612  0.64363619     0.25410
C1373       C  0.66212900  0.29046257  0.65323067    -0.22580
C1374       C  0.62790255  0.27308619  0.64921961     0.20310
F1375       F  0.59478643  0.28977809  0.65188178    -0.12540
F1376       F  0.59429276  0.22199696  0.64209610    -0.14900
F1377       F  0.72551314  0.28528624  0.63068580    -0.14900
F1378       F  0.72731452  0.22440850  0.66427344    -0.12540
C1379       C  0.72976659  0.36006598  0.65691021     0.25470
C1380       C  0.70875752  0.33497745  0.67614560    -0.22640
C1381       C  0.73050437  0.31239604  0.69780348     0.20380
C1382       C  0.76819046  0.30859237  0.69235113     0.25410
C1383       C  0.79065380  0.33181327  0.67321608    -0.22580
C1384       C  0.76969333  0.35791472  0.65439978     0.20310
F1385       F  0.78616316  0.37926743  0.62999429    -0.12540
F1386       F  0.71256646  0.38679902  0.64030686    -0.14900
F1387       F  0.77975934  0.27686771  0.69811521    -0.14900
F1388       F  0.71555844  0.28671017  0.71737421    -0.12540
C1389       C  0.65660079  0.29754964  0.77084998     0.25470
C1390       C  0.65437796  0.32701182  0.79269478    -0.22640
C1391       C  0.64400235  0.35666746  0.77181941     0.20380
C1392       C  0.64785567  0.35737904  0.73296990     0.25410
C1393       C  0.65088717  0.32708651  0.71279021    -0.22580
C1394       C  0.64748143  0.29749552  0.73394759     0.20310
F1395       F  0.64982912  0.26725349  0.71841712    -0.12540
F1396       F  0.67486587  0.26919709  0.78144903    -0.14900
F1397       F  0.64945417  0.38784816  0.71544175    -0.14900
F1398       F  0.63223975  0.38556689  0.78733630    -0.12540
C1399       C  0.73067998  0.34157623  0.86931930     0.25470
C1400       C  0.71142688  0.33893467  0.83519744    -0.22640
C1401       C  0.73267317  0.34708910  0.80343468     0.20380
C1402       C  0.77109806  0.35004350  0.80522488     0.25410
C1403       C  0.79105598  0.33970069  0.83730320    -0.22580
C1404       C  0.77015065  0.34278407  0.87013048     0.20310
F1405       F  0.78767956  0.34481820  0.90297777    -0.12540
F1406       F  0.71197824  0.33861855  0.90175995    -0.14900
F1407       F  0.78809645  0.36329161  0.77484149    -0.14900
F1408       F  0.71781931  0.35214271  0.76981593    -0.12540
C1409       C  0.64884646  0.14372340  0.72625960     0.25470
C1410       C  0.65022972  0.17470101  0.70621142    -0.22640
C1411       C  0.63511406  0.20112292  0.72682188     0.20380
C1412       C  0.63802760  0.20170145  0.76515941     0.25410
C1413       C  0.65123632  0.17321433  0.78611391    -0.22580
C1414       C  0.64886097  0.14283261  0.76522758     0.20310
F1415       F  0.64598067  0.11192832  0.78065665    -0.12540
F1416       F  0.64534508  0.11401191  0.70851361    -0.14900
F1417       F  0.61950263  0.22773300  0.78017618    -0.14900
F1418       F  0.60768552  0.22072207  0.71217354    -0.12540
C1419       C  0.72758562  0.16094230  0.86501304     0.25470
C1420       C  0.70930381  0.16250528  0.83028910    -0.22640
C1421       C  0.73219481  0.15382865  0.80004602     0.20380
C1422       C  0.77029447  0.14788318  0.80463057     0.25410
C1423       C  0.78975990  0.16072162  0.83515913    -0.22580
C1424       C  0.76700961  0.15911423  0.86742060     0.20310
F1425       F  0.78119064  0.15644107  0.90153969    -0.12540
F1426       F  0.70785303  0.16481761  0.89667421    -0.14900
F1427       F  0.78756428  0.12879356  0.77916200    -0.14900
F1428       F  0.71991361  0.15302706  0.76526380    -0.12540
C1429       C  0.70170673  0.26727527  0.84871448     0.25470
C1430       C  0.66884755  0.28784886  0.84774784    -0.22640
C1431       C  0.63479811  0.26951888  0.84771429     0.20380
C1432       C  0.63423307  0.23371435  0.84659444     0.25410
C1433       C  0.66735044  0.21422525  0.83997897    -0.22580
C1434       C  0.70084969  0.23302499  0.84125039     0.20310
F1435       F  0.73358950  0.22109178  0.82785887    -0.12540
F1436       F  0.73633174  0.27990485  0.84633803    -0.14900
F1437       F  0.60023852  0.21884645  0.84538207    -0.14900
F1438       F  0.60175723  0.28634655  0.84378127    -0.12540
C1439       C  0.62450524  0.16181973  0.88611355     0.25470
C1440       C  0.64548808  0.15121020  0.85471176    -0.22640
C1441       C  0.65044323  0.11551476  0.85223390     0.20380
C1442       C  0.62749109  0.09313513  0.87139274     0.25410
C1443       C  0.60188503  0.10503296  0.89713332    -0.22580
C1444       C  0.60174266  0.13919531  0.90578521     0.20310
F1445       F  0.58117344  0.15036163  0.93473270    -0.12540
F1446       F  0.62986206  0.19196415  0.90204301    -0.14900
F1447       F  0.63211098  0.05940768  0.86654389    -0.14900
F1448       F  0.68028516  0.10157139  0.83461426    -0.12540
C1449       C  0.65292028  0.35801864  0.61014259     0.25470
C1450       C  0.64199018  0.35077087  0.64686798    -0.22640
C1451       C  0.60581466  0.36254200  0.65759783     0.20380
C1452       C  0.58606089  0.38591709  0.63620194     0.25410
C1453       C  0.60018577  0.39708144  0.60219373    -0.22580
C1454       C  0.63305152  0.38175687  0.58857242     0.20310
F1455       F  0.64601096  0.38953140  0.55434929    -0.12540
F1456       F  0.68317371  0.34237119  0.59511240    -0.14900
F1457       F  0.55259649  0.39729874  0.64908593    -0.14900
F1458       F  0.58765028  0.35027358  0.68775329    -0.12540
C1459       C  0.90894168  0.13369548  0.61198011     0.25470
C1460       C  0.89241669  0.10474231  0.59892258    -0.22640
C1461       C  0.85525460  0.09842203  0.60755824     0.20380
C1462       C  0.83487847  0.12031919  0.62986035     0.25410
C1463       C  0.84968970  0.15195655  0.64135931    -0.22580
C1464       C  0.88796408  0.15745633  0.63152785     0.20310
F1465       F  0.90656543  0.18556152  0.63957162    -0.12540
F1466       F  0.94558255  0.13965908  0.60476831    -0.14900
F1467       F  0.80107750  0.10872217  0.64064850    -0.14900
F1468       F  0.83899905  0.06966052  0.59612358    -0.12540
C1469       C  0.60004454  0.14243436  0.65482565     0.25470
C1470       C  0.63108921  0.15994555  0.63952276    -0.22640
C1471       C  0.63296289  0.16002836  0.60061734     0.20380
C1472       C  0.61567563  0.13472180  0.58049239     0.25410
C1473       C  0.59175596  0.11178790  0.59822080    -0.22580
C1474       C  0.58199823  0.11767257  0.63501602     0.20310
F1475       F  0.55498681  0.09944338  0.65227542    -0.12540
F1476       F  0.58490254  0.15029781  0.68790771    -0.14900
F1477       F  0.62037837  0.13411999  0.54344985    -0.14900
F1478       F  0.64511713  0.18755899  0.58175359    -0.12540
C1479       C  0.85194630  0.38771896  0.85209773     0.25470
C1480       C  0.85702461  0.35241990  0.85816579    -0.22640
C1481       C  0.88263156  0.34214639  0.88616478     0.20380
C1482       C  0.90263606  0.36597298  0.90574225     0.25410
C1483       C  0.89726068  0.40042848  0.89888972    -0.22580
C1484       C  0.87170045  0.41119695  0.87225248     0.20310
F1485       F  0.86586989  0.44468615  0.86566726    -0.12540
F1486       F  0.82809418  0.39984033  0.82610903    -0.14900
F1487       F  0.92732152  0.35529777  0.93174419    -0.14900
F1488       F  0.88894571  0.30934193  0.89547544    -0.12540
C1489       C  0.89503772  0.14380131  0.84007090     0.25470
C1490       C  0.86085143  0.15745876  0.85357510    -0.22640
C1491       C  0.85715535  0.15552126  0.89235749     0.20380
C1492       C  0.87601082  0.13057532  0.91294442     0.25410
C1493       C  0.90324894  0.11021901  0.89619186    -0.22580
C1494       C  0.91463602  0.11901403  0.86026936     0.20310
F1495       F  0.94506905  0.10417210  0.84464959    -0.12540
F1496       F  0.91192173  0.15609768  0.80927745    -0.14900
F1497       F  0.86905096  0.12774198  0.94959342    -0.14900
F1498       F  0.83978215  0.18051400  0.91110126    -0.12540
C1499       C  0.60459187  0.36440719  0.91104236     0.25470
C1500       C  0.60643921  0.39884378  0.90256337    -0.22640
C1501       C  0.63142363  0.40991342  0.87560344     0.20380
C1502       C  0.65258489  0.38677458  0.85555883     0.25410
C1503       C  0.64754523  0.35120305  0.85975717    -0.22580
C1504       C  0.62578704  0.34091500  0.89099739     0.20310
F1505       F  0.62702981  0.30910147  0.90508310    -0.12540
F1506       F  0.58302176  0.35351596  0.93960707    -0.14900
F1507       F  0.67903111  0.39979431  0.83258362    -0.14900
F1508       F  0.63596454  0.44348184  0.86908412    -0.12540
C1509       C  0.87075409  0.41221355  0.63733557     0.25380
C1510       C  0.89370339  0.40350584  0.60758556    -0.22640
C1511       C  0.89888934  0.36964008  0.59921075     0.20380
C1512       C  0.88096816  0.34438338  0.61966020     0.25410
C1513       C  0.85670657  0.35234058  0.64987463    -0.22580
C1514       C  0.85268416  0.38712398  0.65829739     0.20310
F1515       F  0.83043114  0.39702013  0.68664693    -0.12540
F1516       F  0.86555459  0.44515282  0.64594112    -0.14900
F1517       F  0.88862780  0.31241197  0.60908366    -0.14900
F1518       F  0.92209209  0.36081445  0.57116804    -0.12540
N1519       N  0.95675653  0.96296172  0.43162574    -0.04240
N1520       N  0.95019506  0.93946183  0.40727710    -0.56360
N1521       N  0.93011207  0.54129986  0.45431587    -0.03920
N1522       N  0.90688263  0.56680818  0.44744706    -0.58490
N1523       N  0.95663411  0.54037254  0.42914326    -0.03520
N1524       N  0.95200454  0.56502162  0.40472856    -0.56340
N1525       N  0.93017648  0.96346853  0.45683143    -0.03200
N1526       N  0.90502642  0.94030232  0.45016702    -0.58840
C1527       C  0.91817270  0.92533712  0.41951152     0.97930
C1528       C  0.92099811  0.58149230  0.41645833     0.97710
N1529       N  0.95380808  0.54196128  0.06669676    -0.04430
N1530       N  0.94648737  0.56579379  0.09066909    -0.56940
N1531       N  0.92808707  0.96453805  0.04441456    -0.02550
N1532       N  0.90207678  0.94237283  0.05332576    -0.58190
N1533       N  0.95391452  0.96494631  0.06999523    -0.04460
N1534       N  0.94595335  0.94331187  0.09683805    -0.57210
N1535       N  0.92791363  0.54156383  0.04125745    -0.02190
N1536       N  0.90210692  0.56480221  0.04765707    -0.58280
Mn1537     Mn  0.92793254  0.00264764  0.49906352     1.18440
C1538       C  0.91435191  0.57991459  0.07825750     1.00010
C1539       C  0.91371391  0.92939719  0.08601530     1.00680
N1540       N  0.54385468  0.54054249  0.43018834    -0.04480
N1541       N  0.55007422  0.56460545  0.40542913    -0.60790
N1542       N  0.57098292  0.96353803  0.45843293    -0.03280
N1543       N  0.59627965  0.93951739  0.45313120    -0.61460
N1544       N  0.54526804  0.96280104  0.43280793    -0.03990
N1545       N  0.55263174  0.93841307  0.40945641    -0.61050
N1546       N  0.56893717  0.54138895  0.45635705    -0.02880
N1547       N  0.59265602  0.56607054  0.45010142    -0.61740
Mn1548     Mn  0.00066779  0.00146637  0.42982524     1.10660
C1549       C  0.58012999  0.58062852  0.41863559     1.01240
C1550       C  0.58411228  0.92377825  0.42285699     1.01310
N1551       N  0.54268114  0.96433792  0.06939275    -0.03990
N1552       N  0.54861353  0.93973755  0.09356747    -0.59370
N1553       N  0.56741896  0.54269381  0.04262234    -0.03310
N1554       N  0.58988313  0.56836655  0.04833521    -0.56100
N1555       N  0.54076929  0.54197556  0.06761762    -0.04620
N1556       N  0.54445277  0.56686224  0.09076475    -0.58930
N1557       N  0.56939459  0.96459212  0.04442023    -0.03610
N1558       N  0.59394262  0.94011715  0.05102634    -0.56120
Mn1559     Mn  0.49795602  0.50311593  0.06935015     1.20190
Mn1560     Mn  0.57044474  0.50313258  0.00046889     1.10090
Cl1561     Cl  0.49915470  0.50231328  0.99966085    -0.84090
C1562       C  0.58056323  0.92465107  0.08174288     0.98240
C1563       C  0.57503256  0.58328930  0.07850837     0.98040
C1564       C  0.66748616  0.67547577  0.32755535    -0.00610
C1565       C  0.66995210  0.82638198  0.33406849    -0.00610
C1566       C  0.66559171  0.82644101  0.17170681    -0.00610
C1567       C  0.66058394  0.67863466  0.16342036    -0.00610
C1568       C  0.83088042  0.67721145  0.32996146    -0.00610
C1569       C  0.82508400  0.67826263  0.16360515    -0.00610
C1570       C  0.83506797  0.82495368  0.17292329    -0.00610
C1571       C  0.83344752  0.82732199  0.33590973    -0.00610
C1572       C  0.86923639  0.84777798  0.23444367     0.25470
C1573       C  0.84767875  0.82368952  0.21511643    -0.22640
C1574       C  0.83506720  0.79716127  0.23810356     0.20380
C1575       C  0.82634781  0.80214889  0.27390371     0.25410
C1576       C  0.84429942  0.82678357  0.29413553    -0.22580
C1577       C  0.86889155  0.84828712  0.27374939     0.20310
F1578       F  0.89165260  0.87011300  0.29066859    -0.12540
F1579       F  0.89291238  0.86889615  0.21656052    -0.14900
F1580       F  0.80008347  0.78186592  0.28914977    -0.14900
F1581       F  0.83411490  0.76476207  0.22826333    -0.12540
C1582       C  0.86646200  0.73266467  0.16994616     0.25470
C1583       C  0.83537209  0.71668133  0.15267816    -0.22640
C1584       C  0.81325964  0.73933846  0.13037775     0.20380
C1585       C  0.81756018  0.77453512  0.13154341     0.25410
C1586       C  0.84237780  0.78903790  0.15624906    -0.22580
C1587       C  0.87161579  0.76774846  0.16841098     0.20310
F1588       F  0.90130765  0.78078043  0.18609277    -0.12540
F1589       F  0.88958528  0.71545745  0.19329495    -0.14900
F1590       F  0.79555212  0.79462577  0.10999183    -0.14900
F1591       F  0.78636967  0.72944009  0.10763227    -0.12540
C1592       C  0.81464253  0.70055133  0.26608092     0.25470
C1593       C  0.83739604  0.67767257  0.28639321    -0.22640
C1594       C  0.85438930  0.65149183  0.26482723     0.20380
C1595       C  0.85424231  0.65257922  0.22578879     0.25410
C1596       C  0.83172182  0.67643422  0.20645625    -0.22580
C1597       C  0.81066311  0.69879747  0.22824737     0.20310
F1598       F  0.78283985  0.71742974  0.21297749    -0.12540
F1599       F  0.79002745  0.72091458  0.28354535    -0.14900
F1600       F  0.87183627  0.62719425  0.20781085    -0.14900
F1601       F  0.86418336  0.62134878  0.28038905    -0.12540
C1602       C  0.86704108  0.73410597  0.33074315     0.25470
C1603       C  0.83493766  0.71566524  0.34204176    -0.22640
C1604       C  0.80916205  0.73435491  0.36390393     0.20380
C1605       C  0.81213165  0.76946307  0.36842762     0.25410
C1606       C  0.83928884  0.78879872  0.34943027    -0.22580
C1607       C  0.86953044  0.76935070  0.33503685     0.20310
F1608       F  0.90024178  0.78505055  0.32126585    -0.12540
F1609       F  0.89551035  0.71859074  0.31280022    -0.14900
F1610       F  0.78991719  0.78315295  0.39440999    -0.14900
F1611       F  0.78169441  0.71964193  0.38351373    -0.12540
C1612       C  0.72371700  0.66984819  0.12324039     0.25470
C1613       C  0.70185968  0.66324495  0.15585533    -0.22640
C1614       C  0.72336402  0.64699794  0.18366638     0.20380
C1615       C  0.76188981  0.65116178  0.18572050     0.25410
C1616       C  0.78216051  0.66927378  0.15833494    -0.22580
C1617       C  0.76328643  0.67035618  0.12435053     0.20310
F1618       F  0.78284629  0.67148778  0.09220007    -0.12540
F1619       F  0.70850374  0.67891928  0.09087710    -0.14900
F1620       F  0.78005875  0.63100585  0.21030553    -0.14900
F1621       F  0.71074176  0.61977883  0.20235261    -0.12540
C1622       C  0.62771271  0.73728928  0.14592472     0.25470
C1623       C  0.66089540  0.71777719  0.15279368    -0.22640
C1624       C  0.69429804  0.73678558  0.15211862     0.20380
C1625       C  0.69374523  0.77109615  0.14363568     0.25410
C1626       C  0.66212660  0.79046267  0.15323102    -0.22580
C1627       C  0.62790004  0.77308626  0.14922100     0.20310
F1628       F  0.59478402  0.78977827  0.15188383    -0.12540
F1629       F  0.59429007  0.72199677  0.14209961    -0.14900
F1630       F  0.72551009  0.78528628  0.13068440    -0.14900
F1631       F  0.72731260  0.72440884  0.16427268    -0.12540
C1632       C  0.72976489  0.86006610  0.15691037     0.25470
C1633       C  0.70875584  0.83497720  0.17614514    -0.22640
C1634       C  0.73050252  0.81239532  0.19780255     0.20380
C1635       C  0.76818850  0.80859148  0.19234986     0.25410
C1636       C  0.79065194  0.83181279  0.17321544    -0.22580
C1637       C  0.76969163  0.85791496  0.15440016     0.20310
F1638       F  0.78616168  0.87926888  0.12999608    -0.12540
F1639       F  0.71256472  0.88679942  0.14030759    -0.14900
F1640       F  0.77975704  0.77686655  0.19811291    -0.14900
F1641       F  0.71555624  0.78670920  0.21737274    -0.12540
C1642       C  0.65660046  0.79755070  0.27085021     0.25470
C1643       C  0.65438058  0.82701318  0.29269484    -0.22640
C1644       C  0.64400539  0.85666904  0.27181955     0.20380
C1645       C  0.64785687  0.85738018  0.23296990     0.25410
C1646       C  0.65088630  0.82708744  0.21279044    -0.22580
C1647       C  0.64747978  0.79749679  0.23394816     0.20310
F1648       F  0.64982507  0.76725460  0.21841790    -0.12540
F1649       F  0.67486381  0.76919709  0.28144861    -0.14900
F1650       F  0.64945576  0.88784907  0.21544132    -0.14900
F1651       F  0.63224499  0.88556914  0.28733640    -0.12540
C1652       C  0.73068350  0.84157620  0.36931922     0.25470
C1653       C  0.71143013  0.83893608  0.33519735    -0.22640
C1654       C  0.73267609  0.84709160  0.30343471     0.20380
C1655       C  0.77110106  0.85004590  0.30522482     0.25410
C1656       C  0.79105909  0.83970198  0.33730272    -0.22580
C1657       C  0.77015409  0.84278469  0.37013018     0.20310
F1658       F  0.78768330  0.84481797  0.40297741    -0.12540
F1659       F  0.71198209  0.83861705  0.40175989    -0.14900
F1660       F  0.78809956  0.86329416  0.27484155    -0.14900
F1661       F  0.71782195  0.85214560  0.26981612    -0.12540
C1662       C  0.64884598  0.64372340  0.22626134     0.25470
C1663       C  0.65022848  0.67470098  0.20621310    -0.22640
C1664       C  0.63511352  0.70112289  0.22682403     0.20380
C1665       C  0.63802827  0.70170131  0.26516157     0.25410
C1666       C  0.65123836  0.67321435  0.28611553    -0.22580
C1667       C  0.64886223  0.64283264  0.26522929     0.20310
F1668       F  0.64598350  0.61192823  0.28065837    -0.12540
F1669       F  0.64534398  0.61401189  0.20851555    -0.14900
F1670       F  0.61950243  0.72773194  0.28017924    -0.14900
F1671       F  0.60768404  0.72072150  0.21217656    -0.12540
C1672       C  0.72758879  0.66094299  0.36501406     0.25470
C1673       C  0.70930664  0.66250507  0.33029030    -0.22640
C1674       C  0.73219716  0.65382703  0.30004735     0.20380
C1675       C  0.77029701  0.64788209  0.30463155     0.25410
C1676       C  0.78976266  0.66072130  0.33515958    -0.22580
C1677       C  0.76701274  0.65911443  0.36742129     0.20310
F1678       F  0.78119414  0.65644197  0.40154028    -0.12540
F1679       F  0.70785659  0.66481939  0.39667528    -0.14900
F1680       F  0.78756675  0.62879184  0.27916348    -0.14900
F1681       F  0.71991513  0.65302282  0.26526559    -0.12540
C1682       C  0.70171149  0.76727611  0.34871066     0.25470
C1683       C  0.66885211  0.78784964  0.34774724    -0.22640
C1684       C  0.63480265  0.76951961  0.34771611     0.20380
C1685       C  0.63423736  0.73371506  0.34659667     0.25410
C1686       C  0.66735420  0.71422565  0.33997982    -0.22580
C1687       C  0.70085366  0.73302541  0.34124840     0.20310
F1688       F  0.73359257  0.72109133  0.32785583    -0.12540
F1689       F  0.73633622  0.77990597  0.34632876    -0.14900
F1690       F  0.60024259  0.71884741  0.34538627    -0.14900
F1691       F  0.60176154  0.78634723  0.34378486    -0.12540
C1692       C  0.62450915  0.66182015  0.38611571     0.25470
C1693       C  0.64549125  0.65121056  0.35471353    -0.22640
C1694       C  0.65044593  0.61551510  0.35223548     0.20380
C1695       C  0.62749342  0.59313565  0.37139409     0.25410
C1696       C  0.60188778  0.60503364  0.39713492    -0.22580
C1697       C  0.60174635  0.63919586  0.40578743     0.20310
F1698       F  0.58117787  0.65036216  0.43473542    -0.12540
F1699       F  0.62986703  0.69196432  0.40204537    -0.14900
F1700       F  0.63211270  0.55940820  0.36654481    -0.14900
F1701       F  0.68028777  0.60157145  0.33461597    -0.12540
C1702       C  0.65291841  0.85801903  0.11014273     0.25470
C1703       C  0.64198852  0.85077134  0.14686821    -0.22640
C1704       C  0.60581339  0.86254307  0.15759851     0.20380
C1705       C  0.58605963  0.88591820  0.13620269     0.25410
C1706       C  0.60018410  0.89708220  0.10219412    -0.22580
C1707       C  0.63304965  0.88175730  0.08857264     0.20310
F1708       F  0.64600882  0.88953165  0.05434935    -0.12540
F1709       F  0.68317171  0.84237148  0.09511242    -0.14900
F1710       F  0.55259560  0.89730038  0.14908709    -0.14900
F1711       F  0.58764946  0.85027529  0.18775456    -0.12540
C1712       C  0.90893897  0.63369595  0.11197856     0.25470
C1713       C  0.89241430  0.60474198  0.09892273    -0.22640
C1714       C  0.85525264  0.59842110  0.10755976     0.20380
C1715       C  0.83487668  0.62031849  0.12986170     0.25410
C1716       C  0.84968757  0.65195647  0.14135903    -0.22580
C1717       C  0.88796142  0.65745694  0.13152597     0.20310
F1718       F  0.90656221  0.68556299  0.13956767    -0.12540
F1719       F  0.94557944  0.63966014  0.10476525    -0.14900
F1720       F  0.80107618  0.60872132  0.14065118    -0.14900
F1721       F  0.83899748  0.56965891  0.09612652    -0.12540
C1722       C  0.60004313  0.64243351  0.15482740     0.25470
C1723       C  0.63108727  0.65994540  0.13952440    -0.22640
C1724       C  0.63296044  0.66002874  0.10061893     0.20380
C1725       C  0.61567320  0.63472233  0.08049372     0.25410
C1726       C  0.59175400  0.61178785  0.09822193    -0.22580
C1727       C  0.58199683  0.61767185  0.13501750     0.20310
F1728       F  0.55498590  0.59944207  0.15227691    -0.12540
F1729       F  0.58490158  0.65029625  0.18790987    -0.14900
F1730       F  0.62037547  0.63412113  0.04345110    -0.14900
F1731       F  0.64511457  0.68755962  0.08175551    -0.12540
C1732       C  0.85195195  0.88771882  0.35209438     0.25470
C1733       C  0.85702820  0.85241978  0.35816410    -0.22640
C1734       C  0.88263324  0.84214618  0.38616476     0.20380
C1735       C  0.90263758  0.86597268  0.40574261     0.25410
C1736       C  0.89726418  0.90042817  0.39888847    -0.22580
C1737       C  0.87170624  0.91119673  0.37224915     0.20310
F1738       F  0.86587772  0.94468593  0.36566217    -0.12540
F1739       F  0.82810147  0.89984024  0.32610427    -0.14900
F1740       F  0.92732091  0.85529735  0.43174646    -0.14900
F1741       F  0.88894525  0.80934175  0.39547700    -0.12540
C1742       C  0.89504020  0.64380097  0.34006991     0.25470
C1743       C  0.86085429  0.65745880  0.35357452    -0.22640
C1744       C  0.85715879  0.65552169  0.39235696     0.20380
C1745       C  0.87601435  0.63057576  0.41294389     0.25410
C1746       C  0.90325193  0.61021908  0.39619111    -0.22580
C1747       C  0.91463859  0.61901367  0.36026837     0.20310
F1748       F  0.94507122  0.60417133  0.34464831    -0.12540
F1749       F  0.91192386  0.65609708  0.30927615    -0.14900
F1750       F  0.86905506  0.62774284  0.44959302    -0.14900
F1751       F  0.83978601  0.68051468  0.41110070    -0.12540
C1752       C  0.60459629  0.86440685  0.41104376     0.25470
C1753       C  0.60644190  0.89884339  0.40256399    -0.22640
C1754       C  0.63142572  0.90991357  0.37560384     0.20380
C1755       C  0.65258779  0.88677517  0.35555949     0.25410
C1756       C  0.64754895  0.85120355  0.35975777    -0.22580
C1757       C  0.62579206  0.84091512  0.39099871     0.20310
F1758       F  0.62703726  0.80910194  0.40508527    -0.12540
F1759       F  0.58302751  0.85351529  0.43960928    -0.14900
F1760       F  0.67903427  0.89979549  0.33258497    -0.14900
F1761       F  0.63596558  0.94348208  0.36908428    -0.12540
C1762       C  0.87075447  0.91221281  0.13733709     0.25380
C1763       C  0.89370152  0.90350554  0.10758524    -0.22640
C1764       C  0.89888435  0.86964002  0.09920763     0.20380
C1765       C  0.88096311  0.84438319  0.11965676     0.25410
C1766       C  0.85670421  0.85234002  0.14987338    -0.22580
C1767       C  0.85268385  0.88712314  0.15829808     0.20310
F1768       F  0.83043234  0.89701891  0.18664891    -0.12540
F1769       F  0.86555762  0.94515184  0.14594501    -0.14900
F1770       F  0.88861951  0.81241199  0.10907738    -0.14900
F1771       F  0.92208414  0.86081479  0.07116243    -0.12540
N1772       N  0.95675382  0.96296165  0.93162620    -0.04240
N1773       N  0.95019196  0.93946186  0.90727782    -0.56360
N1774       N  0.93010924  0.54129992  0.95431652    -0.03920
N1775       N  0.90687996  0.56680807  0.94744778    -0.58490
N1776       N  0.95663138  0.54037258  0.92914355    -0.03520
N1777       N  0.95200159  0.56502153  0.90472912    -0.56340
N1778       N  0.93017369  0.96346869  0.95683214    -0.03200
N1779       N  0.90502352  0.94030283  0.95016785    -0.58840
C1780       C  0.91816942  0.92533739  0.91951232     0.97930
C1781       C  0.92099515  0.58149234  0.91645893     0.97710
N1782       N  0.95381023  0.54196122  0.56669633    -0.04430
N1783       N  0.94648968  0.56579392  0.59066885    -0.56940
N1784       N  0.92808915  0.96453809  0.54441439    -0.02550
N1785       N  0.90207845  0.94237299  0.55332580    -0.58190
N1786       N  0.95391648  0.96494625  0.56999477    -0.04460
N1787       N  0.94595536  0.94331179  0.59683788    -0.57210
N1788       N  0.92791604  0.54156389  0.54125718    -0.02190
N1789       N  0.90210927  0.56480256  0.54765670    -0.58280
Mn1790     Mn  0.92793026  0.00264769  0.99906399     1.18440
C1791       C  0.91435439  0.57991481  0.57825712     1.00010
C1792       C  0.91371578  0.92939745  0.58601527     1.00680
N1793       N  0.54385179  0.54054250  0.93018803    -0.04480
N1794       N  0.55007149  0.56460486  0.90542846    -0.60790
N1795       N  0.57098065  0.96353835  0.95843283    -0.03280
N1796       N  0.59627746  0.93951811  0.95313058    -0.61460
N1797       N  0.54526531  0.96280118  0.93280789    -0.03990
N1798       N  0.55262910  0.93841350  0.90945634    -0.61050
N1799       N  0.56893462  0.54138921  0.95635678    -0.02880
N1800       N  0.59265354  0.56607035  0.95010040    -0.61740
Mn1801     Mn  0.00066499  0.00146638  0.92982555     1.10660
C1802       C  0.58012759  0.58062795  0.91863427     1.01240
C1803       C  0.58411006  0.92377890  0.92285633     1.01310
N1804       N  0.54268325  0.96433760  0.56939237    -0.03990
N1805       N  0.54861537  0.93973690  0.59356731    -0.59370
N1806       N  0.56742108  0.54269317  0.54262233    -0.03310
N1807       N  0.58988546  0.56836619  0.54833480    -0.56100
N1808       N  0.54077166  0.54197510  0.56761720    -0.04620
N1809       N  0.54445488  0.56686221  0.59076432    -0.58930
N1810       N  0.56939641  0.96459175  0.54442024    -0.03610
N1811       N  0.59394464  0.94011647  0.55102616    -0.56120
Mn1812     Mn  0.49795813  0.50311570  0.56934997     1.20190
Mn1813     Mn  0.57044714  0.50313215  0.50046894     1.10090
Cl1814     Cl  0.49915703  0.50231309  0.49966062    -0.84090
C1815       C  0.58056493  0.92465055  0.58174251     0.98240
C1816       C  0.57503459  0.58328899  0.57850762     0.98040
C1817       C  0.66748322  0.67547561  0.82755400    -0.00610
C1818       C  0.66994858  0.82638102  0.83406862    -0.00610
C1819       C  0.66559347  0.82644076  0.67170679    -0.00610
C1820       C  0.66058584  0.67863467  0.66341886    -0.00610
C1821       C  0.83087790  0.67721155  0.82996173    -0.00610
C1822       C  0.82508582  0.67826292  0.66360516    -0.00610
C1823       C  0.83506990  0.82495426  0.67292434    -0.00610
C1824       C  0.83344486  0.82732185  0.83591088    -0.00610
C1825       C  0.86923494  0.84778033  0.73444568     0.25470
C1826       C  0.84768018  0.82369025  0.71511770    -0.22640
C1827       C  0.83506979  0.79716127  0.73810462     0.20380
C1828       C  0.82634843  0.80214877  0.77390437     0.25410
C1829       C  0.84429792  0.82678419  0.79413688    -0.22580
C1830       C  0.86888893  0.84828936  0.77375142     0.20310
F1831       F  0.89164738  0.87011706  0.79067118    -0.12540
F1832       F  0.89290924  0.86890058  0.71656331    -0.14900
F1833       F  0.80008439  0.78186486  0.78914942    -0.14900
F1834       F  0.83411805  0.76476207  0.72826419    -0.12540
C1835       C  0.86646389  0.73266498  0.66994668     0.25470
C1836       C  0.83537414  0.71668168  0.65267833    -0.22640
C1837       C  0.81326168  0.73933909  0.63037819     0.20380
C1838       C  0.81756222  0.77453576  0.63154420     0.25410
C1839       C  0.84237973  0.78903842  0.65625001    -0.22580
C1840       C  0.87161765  0.76774882  0.66841187     0.20310
F1841       F  0.90130928  0.78078065  0.68609417    -0.12540
F1842       F  0.88958644  0.71545789  0.69329628    -0.14900
F1843       F  0.79555441  0.79462654  0.60999251    -0.14900
F1844       F  0.78637159  0.72944101  0.60763270    -0.12540
C1845       C  0.81464136  0.70055150  0.76608085     0.25470
C1846       C  0.83739436  0.67767269  0.78639360    -0.22640
C1847       C  0.85438812  0.65149194  0.76482798     0.20380
C1848       C  0.85424243  0.65257952  0.72578953     0.25410
C1849       C  0.83172270  0.67643469  0.70645644    -0.22580
C1850       C  0.81066341  0.69879799  0.72824708     0.20310
F1851       F  0.78284078  0.71743043  0.71297641    -0.12540
F1852       F  0.79002514  0.72091409  0.78354486    -0.14900
F1853       F  0.87183671  0.62719449  0.70781198    -0.14900
F1854       F  0.86418149  0.62134879  0.78038998    -0.12540
C1855       C  0.86703865  0.73410600  0.83074367     0.25470
C1856       C  0.83493517  0.71566529  0.84204219    -0.22640
C1857       C  0.80915983  0.73435481  0.86390484     0.20380
C1858       C  0.81212975  0.76946296  0.86842898     0.25410
C1859       C  0.83928669  0.78879863  0.84943141    -0.22580
C1860       C  0.86952817  0.76935064  0.83503769     0.20310
F1861       F  0.90023950  0.78505049  0.82126662    -0.12540
F1862       F  0.89550781  0.71859089  0.81280047    -0.14900
F1863       F  0.78991653  0.78315283  0.89441240    -0.14900
F1864       F  0.78169254  0.71964154  0.88351491    -0.12540
C1865       C  0.72371921  0.66984871  0.62323945     0.25470
C1866       C  0.70186161  0.66324494  0.65585413    -0.22640
C1867       C  0.72336581  0.64699784  0.68366526     0.20380
C1868       C  0.76189165  0.65116144  0.68571942     0.25410
C1869       C  0.78216243  0.66927404  0.65833440    -0.22580
C1870       C  0.76328860  0.67035685  0.62434989     0.20310
F1871       F  0.78284869  0.67148898  0.59219958    -0.12540
F1872       F  0.70850623  0.67892050  0.59087627    -0.14900
F1873       F  0.78006060  0.63100502  0.71030398    -0.14900
F1874       F  0.71074307  0.61977947  0.70235246    -0.12540
C1875       C  0.62771531  0.73728934  0.64592245     0.25470
C1876       C  0.66089770  0.71777715  0.65279225    -0.22640
C1877       C  0.69430038  0.73678548  0.65211863     0.20380
C1878       C  0.69374793  0.77109612  0.64363619     0.25410
C1879       C  0.66212901  0.79046257  0.65323067    -0.22580
C1880       C  0.62790255  0.77308620  0.64921960     0.20310
F1881       F  0.59478643  0.78977810  0.65188177    -0.12540
F1882       F  0.59429276  0.72199697  0.64209610    -0.14900
F1883       F  0.72551314  0.78528623  0.63068580    -0.14900
F1884       F  0.72731451  0.72440850  0.66427345    -0.12540
C1885       C  0.72976659  0.86006598  0.65691020     0.25470
C1886       C  0.70875752  0.83497745  0.67614560    -0.22640
C1887       C  0.73050437  0.81239605  0.69780348     0.20380
C1888       C  0.76819046  0.80859238  0.69235114     0.25410
C1889       C  0.79065380  0.83181327  0.67321607    -0.22580
C1890       C  0.76969333  0.85791471  0.65439977     0.20310
F1891       F  0.78616316  0.87926742  0.62999427    -0.12540
F1892       F  0.71256647  0.88679901  0.64030684    -0.14900
F1893       F  0.77975934  0.77686772  0.69811522    -0.14900
F1894       F  0.71555844  0.78671018  0.71737421    -0.12540
C1895       C  0.65660078  0.79754965  0.77084997     0.25470
C1896       C  0.65437796  0.82701183  0.79269478    -0.22640
C1897       C  0.64400236  0.85666746  0.77181941     0.20380
C1898       C  0.64785568  0.85737905  0.73296990     0.25410
C1899       C  0.65088717  0.82708651  0.71279021    -0.22580
C1900       C  0.64748143  0.79749553  0.73394759     0.20310
F1901       F  0.64982911  0.76725349  0.71841712    -0.12540
F1902       F  0.67486586  0.76919709  0.78144903    -0.14900
F1903       F  0.64945418  0.88784816  0.71544175    -0.14900
F1904       F  0.63223976  0.88556689  0.78733629    -0.12540
C1905       C  0.73067998  0.84157623  0.86931930     0.25470
C1906       C  0.71142688  0.83893468  0.83519744    -0.22640
C1907       C  0.73267317  0.84708910  0.80343468     0.20380
C1908       C  0.77109807  0.85004350  0.80522488     0.25410
C1909       C  0.79105599  0.83970069  0.83730319    -0.22580
C1910       C  0.77015065  0.84278407  0.87013048     0.20310
F1911       F  0.78767956  0.84481820  0.90297777    -0.12540
F1912       F  0.71197824  0.83861855  0.90175994    -0.14900
F1913       F  0.78809645  0.86329161  0.77484148    -0.14900
F1914       F  0.71781932  0.85214271  0.76981593    -0.12540
C1915       C  0.64884646  0.64372340  0.72625960     0.25470
C1916       C  0.65022972  0.67470101  0.70621142    -0.22640
C1917       C  0.63511405  0.70112292  0.72682188     0.20380
C1918       C  0.63802759  0.70170145  0.76515942     0.25410
C1919       C  0.65123631  0.67321433  0.78611392    -0.22580
C1920       C  0.64886097  0.64283261  0.76522758     0.20310
F1921       F  0.64598067  0.61192832  0.78065665    -0.12540
F1922       F  0.64534508  0.61401191  0.70851362    -0.14900
F1923       F  0.61950261  0.72773299  0.78017618    -0.14900
F1924       F  0.60768552  0.72072207  0.71217354    -0.12540
C1925       C  0.72758562  0.66094230  0.86501304     0.25470
C1926       C  0.70930381  0.66250528  0.83028910    -0.22640
C1927       C  0.73219480  0.65382865  0.80004602     0.20380
C1928       C  0.77029446  0.64788318  0.80463056     0.25410
C1929       C  0.78975990  0.66072162  0.83515913    -0.22580
C1930       C  0.76700961  0.65911423  0.86742060     0.20310
F1931       F  0.78119064  0.65644107  0.90153969    -0.12540
F1932       F  0.70785303  0.66481761  0.89667421    -0.14900
F1933       F  0.78756427  0.62879357  0.77916199    -0.14900
F1934       F  0.71991360  0.65302706  0.76526380    -0.12540
C1935       C  0.70170673  0.76727527  0.84871447     0.25470
C1936       C  0.66884755  0.78784886  0.84774783    -0.22640
C1937       C  0.63479812  0.76951888  0.84771429     0.20380
C1938       C  0.63423307  0.73371435  0.84659445     0.25410
C1939       C  0.66735044  0.71422525  0.83997897    -0.22580
C1940       C  0.70084969  0.73302499  0.84125038     0.20310
F1941       F  0.73358950  0.72109178  0.82785886    -0.12540
F1942       F  0.73633174  0.77990486  0.84633801    -0.14900
F1943       F  0.60023852  0.71884646  0.84538208    -0.14900
F1944       F  0.60175724  0.78634655  0.84378128    -0.12540
C1945       C  0.62450524  0.66181974  0.88611355     0.25470
C1946       C  0.64548807  0.65121020  0.85471176    -0.22640
C1947       C  0.65044322  0.61551477  0.85223390     0.20380
C1948       C  0.62749108  0.59313513  0.87139274     0.25410
C1949       C  0.60188502  0.60503297  0.89713332    -0.22580
C1950       C  0.60174266  0.63919532  0.90578522     0.20310
F1951       F  0.58117344  0.65036163  0.93473271    -0.12540
F1952       F  0.62986207  0.69196416  0.90204301    -0.14900
F1953       F  0.63211097  0.55940768  0.86654389    -0.14900
F1954       F  0.68028515  0.60157140  0.83461426    -0.12540
C1955       C  0.65292028  0.85801864  0.61014259     0.25470
C1956       C  0.64199018  0.85077087  0.64686798    -0.22640
C1957       C  0.60581466  0.86254201  0.65759782     0.20380
C1958       C  0.58606089  0.88591710  0.63620194     0.25410
C1959       C  0.60018577  0.89708144  0.60219373    -0.22580
C1960       C  0.63305152  0.88175686  0.58857241     0.20310
F1961       F  0.64601096  0.88953140  0.55434928    -0.12540
F1962       F  0.68317371  0.84237119  0.59511240    -0.14900
F1963       F  0.55259650  0.89729875  0.64908593    -0.14900
F1964       F  0.58765029  0.85027359  0.68775329    -0.12540
C1965       C  0.90894168  0.63369546  0.61198014     0.25470
C1966       C  0.89241668  0.60474231  0.59892257    -0.22640
C1967       C  0.85525459  0.59842204  0.60755820     0.20380
C1968       C  0.83487846  0.62031920  0.62986031     0.25410
C1969       C  0.84968969  0.65195655  0.64135931    -0.22580
C1970       C  0.88796408  0.65745631  0.63152788     0.20310
F1971       F  0.90656546  0.68556147  0.63957171    -0.12540
F1972       F  0.94558257  0.63965905  0.60476837    -0.14900
F1973       F  0.80107747  0.60872219  0.64064844    -0.14900
F1974       F  0.83899903  0.56966055  0.59612351    -0.12540
C1975       C  0.60004454  0.64243436  0.65482566     0.25470
C1976       C  0.63108920  0.65994555  0.63952276    -0.22640
C1977       C  0.63296288  0.66002836  0.60061735     0.20380
C1978       C  0.61567562  0.63472180  0.58049240     0.25410
C1979       C  0.59175596  0.61178790  0.59822080    -0.22580
C1980       C  0.58199822  0.61767256  0.63501602     0.20310
F1981       F  0.55498681  0.59944338  0.65227542    -0.12540
F1982       F  0.58490253  0.65029781  0.68790772    -0.14900
F1983       F  0.62037837  0.63411998  0.54344986    -0.14900
F1984       F  0.64511712  0.68755899  0.58175359    -0.12540
C1985       C  0.85194630  0.88771896  0.85209773     0.25470
C1986       C  0.85702461  0.85241990  0.85816579    -0.22640
C1987       C  0.88263157  0.84214639  0.88616478     0.20380
C1988       C  0.90263606  0.86597298  0.90574225     0.25410
C1989       C  0.89726068  0.90042848  0.89888972    -0.22580
C1990       C  0.87170044  0.91119695  0.87225249     0.20310
F1991       F  0.86586988  0.94468615  0.86566727    -0.12540
F1992       F  0.82809418  0.89984033  0.82610904    -0.14900
F1993       F  0.92732153  0.85529777  0.93174418    -0.14900
F1994       F  0.88894572  0.80934193  0.89547543    -0.12540
C1995       C  0.89503771  0.64380131  0.84007089     0.25470
C1996       C  0.86085143  0.65745876  0.85357510    -0.22640
C1997       C  0.85715535  0.65552126  0.89235749     0.20380
C1998       C  0.87601082  0.63057532  0.91294442     0.25410
C1999       C  0.90324894  0.61021901  0.89619186    -0.22580
C2000       C  0.91463601  0.61901403  0.86026936     0.20310
F2001       F  0.94506904  0.60417209  0.84464958    -0.12540
F2002       F  0.91192173  0.65609768  0.80927745    -0.14900
F2003       F  0.86905096  0.62774198  0.94959342    -0.14900
F2004       F  0.83978215  0.68051400  0.91110126    -0.12540
C2005       C  0.60459187  0.86440718  0.91104236     0.25470
C2006       C  0.60643921  0.89884378  0.90256337    -0.22640
C2007       C  0.63142363  0.90991342  0.87560344     0.20380
C2008       C  0.65258489  0.88677458  0.85555883     0.25410
C2009       C  0.64754524  0.85120305  0.85975717    -0.22580
C2010       C  0.62578704  0.84091500  0.89099739     0.20310
F2011       F  0.62702982  0.80910147  0.90508310    -0.12540
F2012       F  0.58302177  0.85351596  0.93960708    -0.14900
F2013       F  0.67903111  0.89979432  0.83258362    -0.14900
F2014       F  0.63596454  0.94348184  0.86908411    -0.12540
C2015       C  0.87075408  0.91221355  0.63733557     0.25380
C2016       C  0.89370339  0.90350585  0.60758556    -0.22640
C2017       C  0.89888935  0.86964008  0.59921076     0.20380
C2018       C  0.88096817  0.84438338  0.61966020     0.25410
C2019       C  0.85670657  0.85234059  0.64987463    -0.22580
C2020       C  0.85268415  0.88712398  0.65829738     0.20310
F2021       F  0.83043113  0.89702013  0.68664692    -0.12540
F2022       F  0.86555458  0.94515282  0.64594111    -0.14900
F2023       F  0.88862782  0.81241197  0.60908367    -0.14900
F2024       F  0.92209211  0.86081445  0.57116806    -0.12540
loop_ 
_geom_bond_atom_site_label_1 
_geom_bond_atom_site_label_2 
_geom_bond_distance 
_geom_bond_site_symmetry_2 
_ccdc_geom_bond_type 
N1            N2   1.321       .  A
N1            N7   1.317       .  A
N1          Mn30   2.204       .  S
N2            C9   1.351       .  A
N3            N5   1.315       .  A
N3            N4   1.323       .  A
N3         Mn525   2.218       .  S
N4           C10   1.357       .  A
N5            N6   1.319       .  A
N5         Mn536   2.192       .  S
N6           C10   1.351       .  A
N7            N8   1.320       .  A
N7          Mn19   2.203       .  S
N8            C9   1.351       .  A
C9          C218   1.466       .  S
C10         C228   1.484       .  S
N11          N17   1.315       .  A
N11          N12   1.319       .  A
N11       Mn1053   2.194       .  S
N12          C20   1.351       .  A
N13          N14   1.323       .  A
N13          N15   1.317       .  A
N13        Mn272   2.217   1_554  S
N14          C21   1.354       .  A
N15          N16   1.320       .  A
N15       Mn1559   2.198       .  S
N16          C21   1.350       .  A
N17          N18   1.319       .  A
N17        Mn778   2.194   1_554  S
N18          C20   1.352       .  A
Mn19        N509   2.218       .  S
Mn19        N266   2.217       .  S
Mn19        N776   2.194       .  S
Mn19      Cl1814   2.551       .  S
C20         C195   1.466       .  S
C21         C245   1.471       .  S
N22          N23   1.320       .  A
N22          N28   1.315       .  A
N22       Mn1548   2.202       .  S
N23          C31   1.352       .  A
N24          N26   1.316       .  A
N24          N25   1.321       .  A
N24        Mn801   2.209       .  S
N25          C32   1.352       .  A
N26          N27   1.321       .  A
N26       Mn1042   2.202       .  S
N27          C32   1.352       .  A
N28          N29   1.319       .  A
N28        Mn295   2.189       .  S
N29          C31   1.350       .  A
Mn30        N511   2.192       .  S
Mn30       N1540   2.202       .  S
Mn30       N1038   2.202       .  S
Mn30      Cl1814   2.542       .  S
C31         C178   1.462       .  S
C32         C235   1.469       .  S
N33          N34   1.318       .  A
N33          N39   1.314       .  A
N33        Mn547   2.206   1_455  S
N34          C44   1.355       .  A
N35          N36   1.325       .  A
N35          N37   1.314       .  A
N35         Mn42   2.213       .  S
N36          C45   1.358       .  A
N37          N38   1.316       .  A
N37         Mn41   2.186   1_455  S
N38          C45   1.350       .  A
N39          N40   1.321       .  A
N39        Mn548   2.192       .  S
N40          C44   1.353       .  A
Mn41       N1023   2.194       .  S
Mn41       N1533   2.198   1_545  S
Mn41        N539   2.206   1_645  S
Mn41        Cl43   2.536   1_554  S
Mn42        N783   2.209   1_544  S
Mn42        N281   2.189   1_554  S
Mn42        N545   2.192   1_545  S
Mn42        Cl43   2.554   1_454  S
Cl43      Mn1790   2.551       .  S
Cl43      Mn1801   2.542   1_655  S
C44         C188   1.484       .  S
C45         C208   1.483       .  S
C46         C148   1.624       .  S
C46         C155   1.581       .  S
C46         C168   1.608       .  S
C46         C175   1.580       .  S
C47         C125   1.609       .  S
C47         C135   1.573       .  S
C47         C165   1.599       .  S
C47         C238   1.577       .  S
C48         C108   1.593       .  S
C48         C115   1.596       .  S
C48         C128   1.582       .  S
C48         C185   1.556       .  S
C49          C95   1.616       .  S
C49         C105   1.592       .  S
C49         C145   1.603       .  S
C49         C205   1.573       .  S
C50          C75   1.600       .  S
C50          C85   1.602       .  S
C50         C158   1.627       .  S
C50         C225   1.572       .  S
C51          C65   1.613       .  S
C51          C78   1.579       .  S
C51          C98   1.596       .  S
C51         C198   1.585       .  S
C52          C55   1.603       .  S
C52          C68   1.575       .  S
C52         C118   1.610       .  S
C52         C248   1.569       .  S
C53          C58   1.566       .  S
C53          C88   1.607       .  S
C53         C138   1.590       .  S
C53         C215   1.554       .  S
C54          C55   1.432       .  A
C54          C59   1.430       .  A
C54          F61   1.354       .  S
C55          C56   1.409       .  A
C56          C57   1.354       .  A
C56          F63   1.340       .  S
C57          C58   1.398       .  A
C57          F62   1.354       .  S
C58          C59   1.428       .  A
C59          F60   1.354       .  S
C64          C65   1.441       .  A
C64          C69   1.405       .  A
C64          F71   1.360       .  S
C65          C66   1.435       .  A
C66          C67   1.406       .  A
C66          F73   1.341       .  S
C67          C68   1.404       .  A
C67          F72   1.357       .  S
C68          C69   1.406       .  A
C69          F70   1.359       .  S
C74          C75   1.414       .  A
C74          C79   1.388       .  A
C74          F81   1.350       .  S
C75          C76   1.438       .  A
C76          C77   1.420       .  A
C76          F83   1.356       .  S
C77          C78   1.416       .  A
C77          F82   1.356       .  S
C78          C79   1.408       .  A
C79          F80   1.350       .  S
C84          C85   1.424       .  A
C84          C89   1.412       .  A
C84          F91   1.354       .  S
C85          C86   1.423       .  A
C86          C87   1.409       .  A
C86          F93   1.344       .  S
C87          C88   1.414       .  A
C87          F92   1.348       .  S
C88          C89   1.423       .  A
C89          F90   1.358       .  S
C94          C95   1.439       .  A
C94          C99   1.418       .  A
C94         F101   1.343       .  S
C95          C96   1.417       .  A
C96          C97   1.394       .  A
C96         F103   1.346       .  S
C97          C98   1.418       .  A
C97         F102   1.354       .  S
C98          C99   1.413       .  A
C99         F100   1.359       .  S
C104        C105   1.431       .  A
C104        C109   1.426       .  A
C104        F111   1.357       .  S
C105        C106   1.421       .  A
C106        C107   1.389       .  A
C106        F113   1.349       .  S
C107        C108   1.405       .  A
C107        F112   1.353       .  S
C108        C109   1.423       .  A
C109        F110   1.354       .  S
C114        C115   1.425       .  A
C114        C119   1.434       .  A
C114        F121   1.354       .  S
C115        C116   1.413       .  A
C116        C117   1.369       .  A
C116        F123   1.346       .  S
C117        C118   1.402       .  A
C117        F122   1.332       .  S
C118        C119   1.437       .  A
C119        F120   1.353       .  S
C124        C125   1.425       .  A
C124        C129   1.384       .  A
C124        F131   1.345       .  S
C125        C126   1.435       .  A
C126        C127   1.419       .  A
C126        F133   1.347       .  S
C127        C128   1.420       .  A
C127        F132   1.357       .  S
C128        C129   1.398       .  A
C129        F130   1.335       .  S
C134        C135   1.430       .  A
C134        C139   1.415       .  A
C134        F141   1.357       .  S
C135        C136   1.414       .  A
C136        C137   1.385       .  A
C136        F143   1.348       .  S
C137        C138   1.425       .  A
C137        F142   1.359       .  S
C138        C139   1.411       .  A
C139        F140   1.358       .  S
C144        C145   1.418       .  A
C144        C149   1.418       .  A
C144        F151   1.360       .  S
C145        C146   1.399       .  A
C146        C147   1.400       .  A
C146        F153   1.352       .  S
C147        C148   1.429       .  A
C147        F152   1.342       .  S
C148        C149   1.438       .  A
C149        F150   1.343       .  S
C154        C155   1.427       .  A
C154        C159   1.416       .  A
C154        F161   1.357       .  S
C155        C156   1.412       .  A
C156        C157   1.392       .  A
C156        F163   1.344       .  S
C157        C158   1.420       .  A
C157        F162   1.348       .  S
C158        C159   1.425       .  A
C159        F160   1.347       .  S
C164        C165   1.424       .  A
C164        C169   1.389       .  A
C164        F171   1.344       .  S
C165        C166   1.427       .  A
C166        C167   1.420       .  A
C166        F173   1.358       .  S
C167        C168   1.428       .  A
C167        F172   1.360       .  S
C168        C169   1.421       .  A
C169        F170   1.350       .  S
C174        C175   1.429       .  A
C174        C179   1.403       .  A
C174        F181   1.353       .  S
C175        C176   1.428       .  A
C176        C177   1.391       .  A
C176        F183   1.359       .  S
C177        C178   1.390       .  A
C177        F182   1.359       .  S
C178        C179   1.395       .  A
C179        F180   1.358       .  S
C184        C185   1.415       .  A
C184        C189   1.405       .  A
C184        F191   1.358       .  S
C185        C186   1.426       .  A
C186        C187   1.390       .  A
C186        F193   1.357       .  S
C187        C188   1.400       .  A
C187        F192   1.358       .  S
C188        C189   1.408       .  A
C189        F190   1.357       .  S
C194        C195   1.390       .  A
C194        C199   1.398       .  A
C194        F201   1.359       .  S
C195        C196   1.390       .  A
C196        C197   1.394       .  A
C196        F203   1.359       .  S
C197        C198   1.437       .  A
C197        F202   1.353       .  S
C198        C199   1.432       .  A
C199        F200   1.342       .  S
C204        C205   1.423       .  A
C204        C209   1.395       .  A
C204        F211   1.356       .  S
C205        C206   1.416       .  A
C206        C207   1.404       .  A
C206        F213   1.353       .  S
C207        C208   1.402       .  A
C207        F212   1.357       .  S
C208        C209   1.404       .  A
C209        F210   1.358       .  S
C214        C215   1.422       .  A
C214        C219   1.397       .  A
C214        F221   1.357       .  S
C215        C216   1.426       .  A
C216        C217   1.400       .  A
C216        F223   1.354       .  S
C217        C218   1.395       .  A
C217        F222   1.358       .  S
C218        C219   1.396       .  A
C219        F220   1.358       .  S
C224        C225   1.420       .  A
C224        C229   1.401       .  A
C224        F231   1.355       .  S
C225        C226   1.417       .  A
C226        C227   1.400       .  A
C226        F233   1.354       .  S
C227        C228   1.401       .  A
C227        F232   1.358       .  S
C228        C229   1.406       .  A
C229        F230   1.358       .  S
C234        C235   1.396       .  A
C234        C239   1.404       .  A
C234        F241   1.358       .  S
C235        C236   1.392       .  A
C236        C237   1.394       .  A
C236        F243   1.359       .  S
C237        C238   1.429       .  A
C237        F242   1.359       .  S
C238        C239   1.430       .  A
C239        F240   1.353       .  S
C244        C245   1.400       .  A
C244        C249   1.404       .  A
C244        F251   1.358       .  S
C245        C246   1.391       .  A
C246        C247   1.396       .  A
C246        F253   1.359       .  S
C247        C248   1.433       .  A
C247        F252   1.355       .  S
C248        C249   1.422       .  A
C249        F250   1.359       .  S
N254        N255   1.320       .  A
N254        N260   1.317       .  A
N254       Mn283   2.204       .  S
N255        C262   1.351       .  A
N256        N258   1.315       .  A
N256        N257   1.323       .  A
N256       Mn778   2.217       .  S
N257        C263   1.357       .  A
N258        N259   1.319       .  A
N258       Mn789   2.192       .  S
N259        C263   1.351       .  A
N260        N261   1.320       .  A
N260       Mn272   2.203       .  S
N261        C262   1.351       .  A
C262        C471   1.466       .  S
C263        C481   1.484       .  S
N264        N270   1.315       .  A
N264        N265   1.319       .  A
N264      Mn1306   2.194       .  S
N265        C273   1.351       .  A
N266        N267   1.323       .  A
N266        N268   1.317       .  A
N267        C274   1.354       .  A
N268        N269   1.320       .  A
N268      Mn1812   2.198       .  S
N269        C274   1.350       .  A
N270        N271   1.319       .  A
N270       Mn525   2.194       .  S
N271        C273   1.352       .  A
Mn272       N762   2.217       .  S
Mn272       N523   2.194   1_556  S
Mn272     Cl1561   2.551       .  S
C273        C448   1.466       .  S
C274        C498   1.471       .  S
N275        N276   1.320       .  A
N275        N281   1.315       .  A
N275      Mn1801   2.202       .  S
N276        C284   1.352       .  A
N277        N279   1.316       .  A
N277        N278   1.321       .  A
N277       Mn548   2.209   1_556  S
N278        C285   1.352       .  A
N279        N280   1.321       .  A
N279      Mn1295   2.202       .  S
N280        C285   1.352       .  A
N281        N282   1.319       .  A
N282        C284   1.350       .  A
Mn283       N764   2.192       .  S
Mn283      N1793   2.202       .  S
Mn283      N1291   2.202       .  S
Mn283     Cl1561   2.542       .  S
C284        C431   1.462       .  S
C285        C488   1.469       .  S
N286        N287   1.318       .  A
N286        N292   1.314       .  A
N286       Mn800   2.206   1_455  S
N287        C297   1.355       .  A
N288        N289   1.325       .  A
N288        N290   1.314       .  A
N288       Mn295   2.213       .  S
N289        C298   1.358       .  A
N290        N291   1.316       .  A
N290       Mn294   2.186   1_455  S
N291        C298   1.350       .  A
N292        N293   1.321       .  A
N292       Mn801   2.192       .  S
N293        C297   1.353       .  A
Mn294      N1276   2.194       .  S
Mn294      N1786   2.198   1_545  S
Mn294       N792   2.206   1_645  S
Mn294      Cl296   2.536       .  S
Mn295       N530   2.209   1_545  S
Mn295       N798   2.192   1_545  S
Mn295      Cl296   2.554   1_455  S
Cl296     Mn1537   2.551       .  S
Cl296     Mn1548   2.542   1_655  S
C297        C441   1.484       .  S
C298        C461   1.483       .  S
C299        C401   1.624       .  S
C299        C408   1.581       .  S
C299        C421   1.608       .  S
C299        C428   1.580       .  S
C300        C378   1.609       .  S
C300        C388   1.573       .  S
C300        C418   1.599       .  S
C300        C491   1.577       .  S
C301        C361   1.593       .  S
C301        C368   1.596       .  S
C301        C381   1.582       .  S
C301        C438   1.556       .  S
C302        C348   1.616       .  S
C302        C358   1.592       .  S
C302        C398   1.603       .  S
C302        C458   1.573       .  S
C303        C328   1.600       .  S
C303        C338   1.602       .  S
C303        C411   1.627       .  S
C303        C478   1.572       .  S
C304        C318   1.613       .  S
C304        C331   1.579       .  S
C304        C351   1.596       .  S
C304        C451   1.585       .  S
C305        C308   1.603       .  S
C305        C321   1.575       .  S
C305        C371   1.610       .  S
C305        C501   1.569       .  S
C306        C311   1.566       .  S
C306        C341   1.607       .  S
C306        C391   1.590       .  S
C306        C468   1.554       .  S
C307        C308   1.432       .  A
C307        C312   1.430       .  A
C307        F314   1.354       .  S
C308        C309   1.409       .  A
C309        C310   1.354       .  A
C309        F316   1.340       .  S
C310        C311   1.398       .  A
C310        F315   1.354       .  S
C311        C312   1.428       .  A
C312        F313   1.354       .  S
C317        C318   1.441       .  A
C317        C322   1.405       .  A
C317        F324   1.360       .  S
C318        C319   1.435       .  A
C319        C320   1.406       .  A
C319        F326   1.341       .  S
C320        C321   1.404       .  A
C320        F325   1.357       .  S
C321        C322   1.406       .  A
C322        F323   1.359       .  S
C327        C328   1.414       .  A
C327        C332   1.388       .  A
C327        F334   1.350       .  S
C328        C329   1.438       .  A
C329        C330   1.420       .  A
C329        F336   1.356       .  S
C330        C331   1.416       .  A
C330        F335   1.356       .  S
C331        C332   1.408       .  A
C332        F333   1.350       .  S
C337        C338   1.424       .  A
C337        C342   1.412       .  A
C337        F344   1.354       .  S
C338        C339   1.423       .  A
C339        C340   1.409       .  A
C339        F346   1.344       .  S
C340        C341   1.414       .  A
C340        F345   1.348       .  S
C341        C342   1.423       .  A
C342        F343   1.358       .  S
C347        C348   1.439       .  A
C347        C352   1.418       .  A
C347        F354   1.343       .  S
C348        C349   1.417       .  A
C349        C350   1.394       .  A
C349        F356   1.346       .  S
C350        C351   1.418       .  A
C350        F355   1.354       .  S
C351        C352   1.413       .  A
C352        F353   1.359       .  S
C357        C358   1.431       .  A
C357        C362   1.426       .  A
C357        F364   1.357       .  S
C358        C359   1.421       .  A
C359        C360   1.389       .  A
C359        F366   1.349       .  S
C360        C361   1.405       .  A
C360        F365   1.353       .  S
C361        C362   1.423       .  A
C362        F363   1.354       .  S
C367        C368   1.425       .  A
C367        C372   1.434       .  A
C367        F374   1.354       .  S
C368        C369   1.413       .  A
C369        C370   1.369       .  A
C369        F376   1.346       .  S
C370        C371   1.402       .  A
C370        F375   1.332       .  S
C371        C372   1.437       .  A
C372        F373   1.353       .  S
C377        C378   1.425       .  A
C377        C382   1.384       .  A
C377        F384   1.345       .  S
C378        C379   1.435       .  A
C379        C380   1.419       .  A
C379        F386   1.347       .  S
C380        C381   1.420       .  A
C380        F385   1.357       .  S
C381        C382   1.398       .  A
C382        F383   1.335       .  S
C387        C388   1.430       .  A
C387        C392   1.415       .  A
C387        F394   1.357       .  S
C388        C389   1.414       .  A
C389        C390   1.385       .  A
C389        F396   1.348       .  S
C390        C391   1.425       .  A
C390        F395   1.359       .  S
C391        C392   1.411       .  A
C392        F393   1.358       .  S
C397        C398   1.418       .  A
C397        C402   1.418       .  A
C397        F404   1.360       .  S
C398        C399   1.399       .  A
C399        C400   1.400       .  A
C399        F406   1.352       .  S
C400        C401   1.429       .  A
C400        F405   1.342       .  S
C401        C402   1.438       .  A
C402        F403   1.343       .  S
C407        C408   1.427       .  A
C407        C412   1.416       .  A
C407        F414   1.357       .  S
C408        C409   1.412       .  A
C409        C410   1.392       .  A
C409        F416   1.344       .  S
C410        C411   1.420       .  A
C410        F415   1.348       .  S
C411        C412   1.425       .  A
C412        F413   1.347       .  S
C417        C418   1.424       .  A
C417        C422   1.389       .  A
C417        F424   1.344       .  S
C418        C419   1.427       .  A
C419        C420   1.420       .  A
C419        F426   1.358       .  S
C420        C421   1.428       .  A
C420        F425   1.360       .  S
C421        C422   1.421       .  A
C422        F423   1.350       .  S
C427        C428   1.429       .  A
C427        C432   1.403       .  A
C427        F434   1.353       .  S
C428        C429   1.428       .  A
C429        C430   1.391       .  A
C429        F436   1.359       .  S
C430        C431   1.390       .  A
C430        F435   1.359       .  S
C431        C432   1.395       .  A
C432        F433   1.358       .  S
C437        C438   1.415       .  A
C437        C442   1.405       .  A
C437        F444   1.358       .  S
C438        C439   1.426       .  A
C439        C440   1.390       .  A
C439        F446   1.357       .  S
C440        C441   1.400       .  A
C440        F445   1.358       .  S
C441        C442   1.408       .  A
C442        F443   1.357       .  S
C447        C448   1.390       .  A
C447        C452   1.398       .  A
C447        F454   1.359       .  S
C448        C449   1.390       .  A
C449        C450   1.394       .  A
C449        F456   1.359       .  S
C450        C451   1.437       .  A
C450        F455   1.353       .  S
C451        C452   1.432       .  A
C452        F453   1.342       .  S
C457        C458   1.423       .  A
C457        C462   1.395       .  A
C457        F464   1.356       .  S
C458        C459   1.416       .  A
C459        C460   1.404       .  A
C459        F466   1.353       .  S
C460        C461   1.402       .  A
C460        F465   1.357       .  S
C461        C462   1.404       .  A
C462        F463   1.358       .  S
C467        C468   1.422       .  A
C467        C472   1.397       .  A
C467        F474   1.357       .  S
C468        C469   1.426       .  A
C469        C470   1.400       .  A
C469        F476   1.354       .  S
C470        C471   1.395       .  A
C470        F475   1.358       .  S
C471        C472   1.396       .  A
C472        F473   1.358       .  S
C477        C478   1.420       .  A
C477        C482   1.401       .  A
C477        F484   1.355       .  S
C478        C479   1.417       .  A
C479        C480   1.400       .  A
C479        F486   1.354       .  S
C480        C481   1.401       .  A
C480        F485   1.358       .  S
C481        C482   1.406       .  A
C482        F483   1.358       .  S
C487        C488   1.396       .  A
C487        C492   1.404       .  A
C487        F494   1.358       .  S
C488        C489   1.392       .  A
C489        C490   1.394       .  A
C489        F496   1.359       .  S
C490        C491   1.429       .  A
C490        F495   1.359       .  S
C491        C492   1.430       .  A
C492        F493   1.353       .  S
C497        C498   1.400       .  A
C497        C502   1.404       .  A
C497        F504   1.358       .  S
C498        C499   1.391       .  A
C499        C500   1.396       .  A
C499        F506   1.359       .  S
C500        C501   1.433       .  A
C500        F505   1.355       .  S
C501        C502   1.422       .  A
C502        F503   1.359       .  S
N507        N508   1.321       .  A
N507        N513   1.317       .  A
N507       Mn536   2.204   1_565  S
N508        C515   1.351       .  A
N509        N511   1.315       .  A
N509        N510   1.323       .  A
N510        C516   1.357       .  A
N511        N512   1.319       .  A
N512        C516   1.351       .  A
N513        N514   1.320       .  A
N513       Mn525   2.203   1_565  S
N514        C515   1.351       .  A
C515        C724   1.466       .  S
C516        C734   1.484       .  S
N517        N523   1.315       .  A
N517        N518   1.319       .  A
N517      Mn1559   2.194       .  S
N518        C526   1.351       .  A
N519        N520   1.323       .  A
N519        N521   1.317       .  A
N519       Mn778   2.217   1_564  S
N520        C527   1.354       .  A
N521        N522   1.320       .  A
N521      Mn1053   2.198   1_565  S
N522        C527   1.350       .  A
N523        N524   1.319       .  A
N524        C526   1.352       .  A
Mn525       N772   2.217   1_545  S
Mn525     Cl1308   2.551       .  S
C526        C701   1.466       .  S
C527        C751   1.471       .  S
N528        N529   1.320       .  A
N528        N534   1.315       .  A
N528      Mn1042   2.202       .  S
N529        C537   1.352       .  A
N530        N532   1.316       .  A
N530        N531   1.321       .  A
N531        C538   1.352       .  A
N532        N533   1.321       .  A
N532      Mn1548   2.202   1_565  S
N533        C538   1.352       .  A
N534        N535   1.319       .  A
N534       Mn801   2.189       .  S
N535        C537   1.350       .  A
Mn536      N1034   2.202       .  S
Mn536      N1544   2.202   1_545  S
Mn536     Cl1308   2.542       .  S
C537        C684   1.462       .  S
C538        C741   1.469       .  S
N539        N540   1.318       .  A
N539        N545   1.314       .  A
N540        C550   1.355       .  A
N541        N542   1.325       .  A
N541        N543   1.314       .  A
N541       Mn548   2.213       .  S
N542        C551   1.358       .  A
N543        N544   1.316       .  A
N543       Mn547   2.186   1_455  S
N544        C551   1.350       .  A
N545        N546   1.321       .  A
N546        C550   1.353       .  A
Mn547      N1529   2.194       .  S
Mn547      N1027   2.198       .  S
Mn547      Cl549   2.536   1_554  S
Mn548       N787   2.189   1_554  S
Mn548      Cl549   2.554   1_454  S
Cl549     Mn1284   2.551       .  S
Cl549     Mn1295   2.542   1_655  S
C550        C694   1.484       .  S
C551        C714   1.483       .  S
C552        C654   1.624       .  S
C552        C661   1.581       .  S
C552        C674   1.608       .  S
C552        C681   1.580       .  S
C553        C631   1.609       .  S
C553        C641   1.573       .  S
C553        C671   1.599       .  S
C553        C744   1.577       .  S
C554        C614   1.593       .  S
C554        C621   1.596       .  S
C554        C634   1.582       .  S
C554        C691   1.556       .  S
C555        C601   1.616       .  S
C555        C611   1.592       .  S
C555        C651   1.603       .  S
C555        C711   1.573       .  S
C556        C581   1.600       .  S
C556        C591   1.602       .  S
C556        C664   1.627       .  S
C556        C731   1.572       .  S
C557        C571   1.613       .  S
C557        C584   1.579       .  S
C557        C604   1.596       .  S
C557        C704   1.585       .  S
C558        C561   1.603       .  S
C558        C574   1.575       .  S
C558        C624   1.610       .  S
C558        C754   1.569       .  S
C559        C564   1.566       .  S
C559        C594   1.607       .  S
C559        C644   1.590       .  S
C559        C721   1.554       .  S
C560        C561   1.432       .  A
C560        C565   1.430       .  A
C560        F567   1.354       .  S
C561        C562   1.409       .  A
C562        C563   1.354       .  A
C562        F569   1.340       .  S
C563        C564   1.398       .  A
C563        F568   1.354       .  S
C564        C565   1.428       .  A
C565        F566   1.354       .  S
C570        C571   1.441       .  A
C570        C575   1.405       .  A
C570        F577   1.360       .  S
C571        C572   1.435       .  A
C572        C573   1.406       .  A
C572        F579   1.341       .  S
C573        C574   1.404       .  A
C573        F578   1.357       .  S
C574        C575   1.406       .  A
C575        F576   1.359       .  S
C580        C581   1.414       .  A
C580        C585   1.388       .  A
C580        F587   1.350       .  S
C581        C582   1.438       .  A
C582        C583   1.420       .  A
C582        F589   1.356       .  S
C583        C584   1.416       .  A
C583        F588   1.356       .  S
C584        C585   1.408       .  A
C585        F586   1.350       .  S
C590        C591   1.424       .  A
C590        C595   1.412       .  A
C590        F597   1.354       .  S
C591        C592   1.423       .  A
C592        C593   1.409       .  A
C592        F599   1.344       .  S
C593        C594   1.414       .  A
C593        F598   1.348       .  S
C594        C595   1.423       .  A
C595        F596   1.358       .  S
C600        C601   1.439       .  A
C600        C605   1.418       .  A
C600        F607   1.343       .  S
C601        C602   1.417       .  A
C602        C603   1.394       .  A
C602        F609   1.346       .  S
C603        C604   1.418       .  A
C603        F608   1.354       .  S
C604        C605   1.413       .  A
C605        F606   1.359       .  S
C610        C611   1.431       .  A
C610        C615   1.426       .  A
C610        F617   1.357       .  S
C611        C612   1.421       .  A
C612        C613   1.389       .  A
C612        F619   1.349       .  S
C613        C614   1.405       .  A
C613        F618   1.353       .  S
C614        C615   1.423       .  A
C615        F616   1.354       .  S
C620        C621   1.425       .  A
C620        C625   1.434       .  A
C620        F627   1.354       .  S
C621        C622   1.413       .  A
C622        C623   1.369       .  A
C622        F629   1.346       .  S
C623        C624   1.402       .  A
C623        F628   1.332       .  S
C624        C625   1.437       .  A
C625        F626   1.353       .  S
C630        C631   1.425       .  A
C630        C635   1.384       .  A
C630        F637   1.345       .  S
C631        C632   1.435       .  A
C632        C633   1.419       .  A
C632        F639   1.347       .  S
C633        C634   1.420       .  A
C633        F638   1.357       .  S
C634        C635   1.398       .  A
C635        F636   1.335       .  S
C640        C641   1.430       .  A
C640        C645   1.415       .  A
C640        F647   1.357       .  S
C641        C642   1.414       .  A
C642        C643   1.385       .  A
C642        F649   1.348       .  S
C643        C644   1.425       .  A
C643        F648   1.359       .  S
C644        C645   1.411       .  A
C645        F646   1.358       .  S
C650        C651   1.418       .  A
C650        C655   1.418       .  A
C650        F657   1.360       .  S
C651        C652   1.399       .  A
C652        C653   1.400       .  A
C652        F659   1.352       .  S
C653        C654   1.429       .  A
C653        F658   1.342       .  S
C654        C655   1.438       .  A
C655        F656   1.343       .  S
C660        C661   1.427       .  A
C660        C665   1.416       .  A
C660        F667   1.357       .  S
C661        C662   1.412       .  A
C662        C663   1.392       .  A
C662        F669   1.344       .  S
C663        C664   1.420       .  A
C663        F668   1.348       .  S
C664        C665   1.425       .  A
C665        F666   1.347       .  S
C670        C671   1.424       .  A
C670        C675   1.389       .  A
C670        F677   1.344       .  S
C671        C672   1.427       .  A
C672        C673   1.420       .  A
C672        F679   1.358       .  S
C673        C674   1.428       .  A
C673        F678   1.360       .  S
C674        C675   1.421       .  A
C675        F676   1.350       .  S
C680        C681   1.429       .  A
C680        C685   1.403       .  A
C680        F687   1.353       .  S
C681        C682   1.428       .  A
C682        C683   1.391       .  A
C682        F689   1.359       .  S
C683        C684   1.390       .  A
C683        F688   1.359       .  S
C684        C685   1.395       .  A
C685        F686   1.358       .  S
C690        C691   1.415       .  A
C690        C695   1.405       .  A
C690        F697   1.358       .  S
C691        C692   1.426       .  A
C692        C693   1.390       .  A
C692        F699   1.357       .  S
C693        C694   1.400       .  A
C693        F698   1.358       .  S
C694        C695   1.408       .  A
C695        F696   1.357       .  S
C700        C701   1.390       .  A
C700        C705   1.398       .  A
C700        F707   1.359       .  S
C701        C702   1.390       .  A
C702        C703   1.394       .  A
C702        F709   1.359       .  S
C703        C704   1.437       .  A
C703        F708   1.353       .  S
C704        C705   1.432       .  A
C705        F706   1.342       .  S
C710        C711   1.423       .  A
C710        C715   1.395       .  A
C710        F717   1.356       .  S
C711        C712   1.416       .  A
C712        C713   1.404       .  A
C712        F719   1.353       .  S
C713        C714   1.402       .  A
C713        F718   1.357       .  S
C714        C715   1.404       .  A
C715        F716   1.358       .  S
C720        C721   1.422       .  A
C720        C725   1.397       .  A
C720        F727   1.357       .  S
C721        C722   1.426       .  A
C722        C723   1.400       .  A
C722        F729   1.354       .  S
C723        C724   1.395       .  A
C723        F728   1.358       .  S
C724        C725   1.396       .  A
C725        F726   1.358       .  S
C730        C731   1.420       .  A
C730        C735   1.401       .  A
C730        F737   1.355       .  S
C731        C732   1.417       .  A
C732        C733   1.400       .  A
C732        F739   1.354       .  S
C733        C734   1.401       .  A
C733        F738   1.358       .  S
C734        C735   1.406       .  A
C735        F736   1.358       .  S
C740        C741   1.396       .  A
C740        C745   1.404       .  A
C740        F747   1.358       .  S
C741        C742   1.392       .  A
C742        C743   1.394       .  A
C742        F749   1.359       .  S
C743        C744   1.429       .  A
C743        F748   1.359       .  S
C744        C745   1.430       .  A
C745        F746   1.353       .  S
C750        C751   1.400       .  A
C750        C755   1.404       .  A
C750        F757   1.358       .  S
C751        C752   1.391       .  A
C752        C753   1.396       .  A
C752        F759   1.359       .  S
C753        C754   1.433       .  A
C753        F758   1.355       .  S
C754        C755   1.422       .  A
C755        F756   1.359       .  S
N760        N761   1.320       .  A
N760        N766   1.317       .  A
N760       Mn789   2.204   1_565  S
N761        C768   1.351       .  A
N762        N764   1.315       .  A
N762        N763   1.323       .  A
N763        C769   1.357       .  A
N764        N765   1.319       .  A
N765        C769   1.351       .  A
N766        N767   1.320       .  A
N766       Mn778   2.203   1_565  S
N767        C768   1.351       .  A
C768        C977   1.466       .  S
C769        C987   1.484       .  S
N770        N776   1.315       .  A
N770        N771   1.319       .  A
N770      Mn1812   2.194       .  S
N771        C779   1.351       .  A
N772        N773   1.323       .  A
N772        N774   1.317       .  A
N773        C780   1.354       .  A
N774        N775   1.320       .  A
N774      Mn1306   2.198   1_565  S
N775        C780   1.350       .  A
N776        N777   1.319       .  A
N777        C779   1.352       .  A
Mn778     Cl1055   2.551       .  S
C779        C954   1.466       .  S
C780       C1004   1.471       .  S
N781        N782   1.320       .  A
N781        N787   1.315       .  A
N781      Mn1295   2.202       .  S
N782        C790   1.352       .  A
N783        N785   1.316       .  A
N783        N784   1.321       .  A
N784        C791   1.352       .  A
N785        N786   1.321       .  A
N785      Mn1801   2.202   1_565  S
N786        C791   1.352       .  A
N787        N788   1.319       .  A
N788        C790   1.350       .  A
Mn789      N1287   2.202       .  S
Mn789      N1797   2.202   1_545  S
Mn789     Cl1055   2.542       .  S
C790        C937   1.462       .  S
C791        C994   1.469       .  S
N792        N793   1.318       .  A
N792        N798   1.314       .  A
N793        C803   1.355       .  A
N794        N795   1.325       .  A
N794        N796   1.314       .  A
N794       Mn801   2.213       .  S
N795        C804   1.358       .  A
N796        N797   1.316       .  A
N796       Mn800   2.186   1_455  S
N797        C804   1.350       .  A
N798        N799   1.321       .  A
N799        C803   1.353       .  A
Mn800      N1782   2.194       .  S
Mn800      N1280   2.198       .  S
Mn800      Cl802   2.536       .  S
Mn801      Cl802   2.554   1_455  S
Cl802     Mn1031   2.551       .  S
Cl802     Mn1042   2.542   1_655  S
C803        C947   1.484       .  S
C804        C967   1.483       .  S
C805        C907   1.624       .  S
C805        C914   1.581       .  S
C805        C927   1.608       .  S
C805        C934   1.580       .  S
C806        C884   1.609       .  S
C806        C894   1.573       .  S
C806        C924   1.599       .  S
C806        C997   1.577       .  S
C807        C867   1.593       .  S
C807        C874   1.596       .  S
C807        C887   1.582       .  S
C807        C944   1.556       .  S
C808        C854   1.616       .  S
C808        C864   1.592       .  S
C808        C904   1.603       .  S
C808        C964   1.573       .  S
C809        C834   1.600       .  S
C809        C844   1.602       .  S
C809        C917   1.627       .  S
C809        C984   1.572       .  S
C810        C824   1.613       .  S
C810        C837   1.579       .  S
C810        C857   1.596       .  S
C810        C957   1.585       .  S
C811        C814   1.603       .  S
C811        C827   1.575       .  S
C811        C877   1.610       .  S
C811       C1007   1.569       .  S
C812        C817   1.566       .  S
C812        C847   1.607       .  S
C812        C897   1.590       .  S
C812        C974   1.554       .  S
C813        C814   1.432       .  A
C813        C818   1.430       .  A
C813        F820   1.354       .  S
C814        C815   1.409       .  A
C815        C816   1.354       .  A
C815        F822   1.340       .  S
C816        C817   1.398       .  A
C816        F821   1.354       .  S
C817        C818   1.428       .  A
C818        F819   1.354       .  S
C823        C824   1.441       .  A
C823        C828   1.405       .  A
C823        F830   1.360       .  S
C824        C825   1.435       .  A
C825        C826   1.406       .  A
C825        F832   1.341       .  S
C826        C827   1.404       .  A
C826        F831   1.357       .  S
C827        C828   1.406       .  A
C828        F829   1.359       .  S
C833        C834   1.414       .  A
C833        C838   1.388       .  A
C833        F840   1.350       .  S
C834        C835   1.438       .  A
C835        C836   1.420       .  A
C835        F842   1.356       .  S
C836        C837   1.416       .  A
C836        F841   1.356       .  S
C837        C838   1.408       .  A
C838        F839   1.350       .  S
C843        C844   1.424       .  A
C843        C848   1.412       .  A
C843        F850   1.354       .  S
C844        C845   1.423       .  A
C845        C846   1.409       .  A
C845        F852   1.344       .  S
C846        C847   1.414       .  A
C846        F851   1.348       .  S
C847        C848   1.423       .  A
C848        F849   1.358       .  S
C853        C854   1.439       .  A
C853        C858   1.418       .  A
C853        F860   1.343       .  S
C854        C855   1.417       .  A
C855        C856   1.394       .  A
C855        F862   1.346       .  S
C856        C857   1.418       .  A
C856        F861   1.354       .  S
C857        C858   1.413       .  A
C858        F859   1.359       .  S
C863        C864   1.431       .  A
C863        C868   1.426       .  A
C863        F870   1.357       .  S
C864        C865   1.421       .  A
C865        C866   1.389       .  A
C865        F872   1.349       .  S
C866        C867   1.405       .  A
C866        F871   1.353       .  S
C867        C868   1.423       .  A
C868        F869   1.354       .  S
C873        C874   1.425       .  A
C873        C878   1.434       .  A
C873        F880   1.354       .  S
C874        C875   1.413       .  A
C875        C876   1.369       .  A
C875        F882   1.346       .  S
C876        C877   1.402       .  A
C876        F881   1.332       .  S
C877        C878   1.437       .  A
C878        F879   1.353       .  S
C883        C884   1.425       .  A
C883        C888   1.384       .  A
C883        F890   1.345       .  S
C884        C885   1.435       .  A
C885        C886   1.419       .  A
C885        F892   1.347       .  S
C886        C887   1.420       .  A
C886        F891   1.357       .  S
C887        C888   1.398       .  A
C888        F889   1.335       .  S
C893        C894   1.430       .  A
C893        C898   1.415       .  A
C893        F900   1.357       .  S
C894        C895   1.414       .  A
C895        C896   1.385       .  A
C895        F902   1.348       .  S
C896        C897   1.425       .  A
C896        F901   1.359       .  S
C897        C898   1.411       .  A
C898        F899   1.358       .  S
C903        C904   1.418       .  A
C903        C908   1.418       .  A
C903        F910   1.360       .  S
C904        C905   1.399       .  A
C905        C906   1.400       .  A
C905        F912   1.352       .  S
C906        C907   1.429       .  A
C906        F911   1.342       .  S
C907        C908   1.438       .  A
C908        F909   1.343       .  S
C913        C914   1.427       .  A
C913        C918   1.416       .  A
C913        F920   1.357       .  S
C914        C915   1.412       .  A
C915        C916   1.392       .  A
C915        F922   1.344       .  S
C916        C917   1.420       .  A
C916        F921   1.348       .  S
C917        C918   1.425       .  A
C918        F919   1.347       .  S
C923        C924   1.424       .  A
C923        C928   1.389       .  A
C923        F930   1.344       .  S
C924        C925   1.427       .  A
C925        C926   1.420       .  A
C925        F932   1.358       .  S
C926        C927   1.428       .  A
C926        F931   1.360       .  S
C927        C928   1.421       .  A
C928        F929   1.350       .  S
C933        C934   1.429       .  A
C933        C938   1.403       .  A
C933        F940   1.353       .  S
C934        C935   1.428       .  A
C935        C936   1.391       .  A
C935        F942   1.359       .  S
C936        C937   1.390       .  A
C936        F941   1.359       .  S
C937        C938   1.395       .  A
C938        F939   1.358       .  S
C943        C944   1.415       .  A
C943        C948   1.405       .  A
C943        F950   1.358       .  S
C944        C945   1.426       .  A
C945        C946   1.390       .  A
C945        F952   1.357       .  S
C946        C947   1.400       .  A
C946        F951   1.358       .  S
C947        C948   1.408       .  A
C948        F949   1.357       .  S
C953        C954   1.390       .  A
C953        C958   1.398       .  A
C953        F960   1.359       .  S
C954        C955   1.390       .  A
C955        C956   1.394       .  A
C955        F962   1.359       .  S
C956        C957   1.437       .  A
C956        F961   1.353       .  S
C957        C958   1.432       .  A
C958        F959   1.342       .  S
C963        C964   1.423       .  A
C963        C968   1.395       .  A
C963        F970   1.356       .  S
C964        C965   1.416       .  A
C965        C966   1.404       .  A
C965        F972   1.353       .  S
C966        C967   1.402       .  A
C966        F971   1.357       .  S
C967        C968   1.404       .  A
C968        F969   1.358       .  S
C973        C974   1.422       .  A
C973        C978   1.397       .  A
C973        F980   1.357       .  S
C974        C975   1.426       .  A
C975        C976   1.400       .  A
C975        F982   1.354       .  S
C976        C977   1.395       .  A
C976        F981   1.358       .  S
C977        C978   1.396       .  A
C978        F979   1.358       .  S
C983        C984   1.420       .  A
C983        C988   1.401       .  A
C983        F990   1.355       .  S
C984        C985   1.417       .  A
C985        C986   1.400       .  A
C985        F992   1.354       .  S
C986        C987   1.401       .  A
C986        F991   1.358       .  S
C987        C988   1.406       .  A
C988        F989   1.358       .  S
C993        C994   1.396       .  A
C993        C998   1.404       .  A
C993       F1000   1.358       .  S
C994        C995   1.392       .  A
C995        C996   1.394       .  A
C995       F1002   1.359       .  S
C996        C997   1.429       .  A
C996       F1001   1.359       .  S
C997        C998   1.430       .  A
C998        F999   1.353       .  S
C1003      C1004   1.400       .  A
C1003      C1008   1.404       .  A
C1003      F1010   1.358       .  S
C1004      C1005   1.391       .  A
C1005      C1006   1.396       .  A
C1005      F1012   1.359       .  S
C1006      C1007   1.433       .  A
C1006      F1011   1.355       .  S
C1007      C1008   1.422       .  A
C1008      F1009   1.359       .  S
N1013      N1014   1.321       .  A
N1013      N1019   1.317       .  A
N1013     Mn1042   2.204   1_655  S
N1014      C1021   1.351       .  A
N1015      N1017   1.315       .  A
N1015      N1016   1.323       .  A
N1015     Mn1537   2.218       .  S
N1016      C1022   1.357       .  A
N1017      N1018   1.319       .  A
N1017     Mn1548   2.192   1_655  S
N1018      C1022   1.351       .  A
N1019      N1020   1.320       .  A
N1019     Mn1031   2.203       .  S
N1020      C1021   1.351       .  A
C1021      C1230   1.466       .  S
C1022      C1240   1.484       .  S
N1023      N1029   1.315       .  A
N1023      N1024   1.319       .  A
N1024      C1032   1.351       .  A
N1025      N1026   1.323       .  A
N1025      N1027   1.317       .  A
N1025     Mn1284   2.217   1_554  S
N1026      C1033   1.354       .  A
N1027      N1028   1.320       .  A
N1028      C1033   1.350       .  A
N1029      N1030   1.319       .  A
N1029     Mn1790   2.194   1_554  S
N1030      C1032   1.352       .  A
Mn1031     N1521   2.218       .  S
Mn1031     N1278   2.217       .  S
Mn1031     N1788   2.194       .  S
C1032      C1207   1.466       .  S
C1033      C1257   1.471       .  S
N1034      N1035   1.320       .  A
N1034      N1040   1.315       .  A
N1035      C1043   1.352       .  A
N1036      N1038   1.316       .  A
N1036      N1037   1.321       .  A
N1036     Mn1813   2.209       .  S
N1037      C1044   1.352       .  A
N1038      N1039   1.321       .  A
N1039      C1044   1.352       .  A
N1040      N1041   1.319       .  A
N1040     Mn1307   2.189       .  S
N1041      C1043   1.350       .  A
Mn1042     N1523   2.192   1_455  S
C1043      C1190   1.462       .  S
C1044      C1247   1.469       .  S
N1045      N1046   1.318       .  A
N1045      N1051   1.314       .  A
N1045     Mn1559   2.206       .  S
N1046      C1056   1.355       .  A
N1047      N1048   1.325       .  A
N1047      N1049   1.314       .  A
N1047     Mn1054   2.213       .  S
N1048      C1057   1.358       .  A
N1049      N1050   1.316       .  A
N1049     Mn1053   2.186       .  S
N1050      C1057   1.350       .  A
N1051      N1052   1.321       .  A
N1051     Mn1560   2.192       .  S
N1052      C1056   1.353       .  A
Mn1053     N1551   2.206   1_545  S
Mn1053    Cl1055   2.536   1_554  S
Mn1054     N1795   2.209   1_544  S
Mn1054     N1293   2.189   1_554  S
Mn1054     N1557   2.192   1_545  S
Mn1054    Cl1055   2.554   1_554  S
C1056      C1200   1.484       .  S
C1057      C1220   1.483       .  S
C1058      C1160   1.624       .  S
C1058      C1167   1.581       .  S
C1058      C1180   1.608       .  S
C1058      C1187   1.580       .  S
C1059      C1137   1.609       .  S
C1059      C1147   1.573       .  S
C1059      C1177   1.599       .  S
C1059      C1250   1.577       .  S
C1060      C1120   1.593       .  S
C1060      C1127   1.596       .  S
C1060      C1140   1.582       .  S
C1060      C1197   1.556       .  S
C1061      C1107   1.616       .  S
C1061      C1117   1.592       .  S
C1061      C1157   1.603       .  S
C1061      C1217   1.573       .  S
C1062      C1087   1.600       .  S
C1062      C1097   1.602       .  S
C1062      C1170   1.627       .  S
C1062      C1237   1.572       .  S
C1063      C1077   1.613       .  S
C1063      C1090   1.579       .  S
C1063      C1110   1.596       .  S
C1063      C1210   1.585       .  S
C1064      C1067   1.603       .  S
C1064      C1080   1.575       .  S
C1064      C1130   1.610       .  S
C1064      C1260   1.569       .  S
C1065      C1070   1.566       .  S
C1065      C1100   1.607       .  S
C1065      C1150   1.590       .  S
C1065      C1227   1.554       .  S
C1066      C1067   1.432       .  A
C1066      C1071   1.430       .  A
C1066      F1073   1.354       .  S
C1067      C1068   1.409       .  A
C1068      C1069   1.354       .  A
C1068      F1075   1.340       .  S
C1069      C1070   1.398       .  A
C1069      F1074   1.354       .  S
C1070      C1071   1.428       .  A
C1071      F1072   1.354       .  S
C1076      C1077   1.441       .  A
C1076      C1081   1.405       .  A
C1076      F1083   1.360       .  S
C1077      C1078   1.435       .  A
C1078      C1079   1.406       .  A
C1078      F1085   1.341       .  S
C1079      C1080   1.404       .  A
C1079      F1084   1.357       .  S
C1080      C1081   1.406       .  A
C1081      F1082   1.359       .  S
C1086      C1087   1.414       .  A
C1086      C1091   1.388       .  A
C1086      F1093   1.350       .  S
C1087      C1088   1.438       .  A
C1088      C1089   1.420       .  A
C1088      F1095   1.356       .  S
C1089      C1090   1.416       .  A
C1089      F1094   1.356       .  S
C1090      C1091   1.408       .  A
C1091      F1092   1.350       .  S
C1096      C1097   1.424       .  A
C1096      C1101   1.412       .  A
C1096      F1103   1.354       .  S
C1097      C1098   1.423       .  A
C1098      C1099   1.409       .  A
C1098      F1105   1.344       .  S
C1099      C1100   1.414       .  A
C1099      F1104   1.348       .  S
C1100      C1101   1.423       .  A
C1101      F1102   1.358       .  S
C1106      C1107   1.439       .  A
C1106      C1111   1.418       .  A
C1106      F1113   1.343       .  S
C1107      C1108   1.417       .  A
C1108      C1109   1.394       .  A
C1108      F1115   1.346       .  S
C1109      C1110   1.418       .  A
C1109      F1114   1.354       .  S
C1110      C1111   1.413       .  A
C1111      F1112   1.359       .  S
C1116      C1117   1.431       .  A
C1116      C1121   1.426       .  A
C1116      F1123   1.357       .  S
C1117      C1118   1.421       .  A
C1118      C1119   1.389       .  A
C1118      F1125   1.349       .  S
C1119      C1120   1.405       .  A
C1119      F1124   1.353       .  S
C1120      C1121   1.423       .  A
C1121      F1122   1.354       .  S
C1126      C1127   1.425       .  A
C1126      C1131   1.434       .  A
C1126      F1133   1.354       .  S
C1127      C1128   1.413       .  A
C1128      C1129   1.369       .  A
C1128      F1135   1.346       .  S
C1129      C1130   1.402       .  A
C1129      F1134   1.332       .  S
C1130      C1131   1.437       .  A
C1131      F1132   1.353       .  S
C1136      C1137   1.425       .  A
C1136      C1141   1.384       .  A
C1136      F1143   1.345       .  S
C1137      C1138   1.435       .  A
C1138      C1139   1.419       .  A
C1138      F1145   1.347       .  S
C1139      C1140   1.420       .  A
C1139      F1144   1.357       .  S
C1140      C1141   1.398       .  A
C1141      F1142   1.335       .  S
C1146      C1147   1.430       .  A
C1146      C1151   1.415       .  A
C1146      F1153   1.357       .  S
C1147      C1148   1.414       .  A
C1148      C1149   1.385       .  A
C1148      F1155   1.348       .  S
C1149      C1150   1.425       .  A
C1149      F1154   1.359       .  S
C1150      C1151   1.411       .  A
C1151      F1152   1.358       .  S
C1156      C1157   1.418       .  A
C1156      C1161   1.418       .  A
C1156      F1163   1.360       .  S
C1157      C1158   1.399       .  A
C1158      C1159   1.400       .  A
C1158      F1165   1.352       .  S
C1159      C1160   1.429       .  A
C1159      F1164   1.342       .  S
C1160      C1161   1.438       .  A
C1161      F1162   1.343       .  S
C1166      C1167   1.427       .  A
C1166      C1171   1.416       .  A
C1166      F1173   1.357       .  S
C1167      C1168   1.412       .  A
C1168      C1169   1.392       .  A
C1168      F1175   1.344       .  S
C1169      C1170   1.420       .  A
C1169      F1174   1.348       .  S
C1170      C1171   1.425       .  A
C1171      F1172   1.347       .  S
C1176      C1177   1.424       .  A
C1176      C1181   1.389       .  A
C1176      F1183   1.344       .  S
C1177      C1178   1.427       .  A
C1178      C1179   1.420       .  A
C1178      F1185   1.358       .  S
C1179      C1180   1.428       .  A
C1179      F1184   1.360       .  S
C1180      C1181   1.421       .  A
C1181      F1182   1.350       .  S
C1186      C1187   1.429       .  A
C1186      C1191   1.403       .  A
C1186      F1193   1.353       .  S
C1187      C1188   1.428       .  A
C1188      C1189   1.391       .  A
C1188      F1195   1.359       .  S
C1189      C1190   1.390       .  A
C1189      F1194   1.359       .  S
C1190      C1191   1.395       .  A
C1191      F1192   1.358       .  S
C1196      C1197   1.415       .  A
C1196      C1201   1.405       .  A
C1196      F1203   1.358       .  S
C1197      C1198   1.426       .  A
C1198      C1199   1.390       .  A
C1198      F1205   1.357       .  S
C1199      C1200   1.400       .  A
C1199      F1204   1.358       .  S
C1200      C1201   1.408       .  A
C1201      F1202   1.357       .  S
C1206      C1207   1.390       .  A
C1206      C1211   1.398       .  A
C1206      F1213   1.359       .  S
C1207      C1208   1.390       .  A
C1208      C1209   1.394       .  A
C1208      F1215   1.359       .  S
C1209      C1210   1.437       .  A
C1209      F1214   1.353       .  S
C1210      C1211   1.432       .  A
C1211      F1212   1.342       .  S
C1216      C1217   1.423       .  A
C1216      C1221   1.395       .  A
C1216      F1223   1.356       .  S
C1217      C1218   1.416       .  A
C1218      C1219   1.404       .  A
C1218      F1225   1.353       .  S
C1219      C1220   1.402       .  A
C1219      F1224   1.357       .  S
C1220      C1221   1.404       .  A
C1221      F1222   1.358       .  S
C1226      C1227   1.422       .  A
C1226      C1231   1.397       .  A
C1226      F1233   1.357       .  S
C1227      C1228   1.426       .  A
C1228      C1229   1.400       .  A
C1228      F1235   1.354       .  S
C1229      C1230   1.395       .  A
C1229      F1234   1.358       .  S
C1230      C1231   1.396       .  A
C1231      F1232   1.358       .  S
C1236      C1237   1.420       .  A
C1236      C1241   1.401       .  A
C1236      F1243   1.355       .  S
C1237      C1238   1.417       .  A
C1238      C1239   1.400       .  A
C1238      F1245   1.354       .  S
C1239      C1240   1.401       .  A
C1239      F1244   1.358       .  S
C1240      C1241   1.406       .  A
C1241      F1242   1.358       .  S
C1246      C1247   1.396       .  A
C1246      C1251   1.404       .  A
C1246      F1253   1.358       .  S
C1247      C1248   1.392       .  A
C1248      C1249   1.394       .  A
C1248      F1255   1.359       .  S
C1249      C1250   1.429       .  A
C1249      F1254   1.359       .  S
C1250      C1251   1.430       .  A
C1251      F1252   1.353       .  S
C1256      C1257   1.400       .  A
C1256      C1261   1.404       .  A
C1256      F1263   1.358       .  S
C1257      C1258   1.391       .  A
C1258      C1259   1.396       .  A
C1258      F1265   1.359       .  S
C1259      C1260   1.433       .  A
C1259      F1264   1.355       .  S
C1260      C1261   1.422       .  A
C1261      F1262   1.359       .  S
N1266      N1267   1.320       .  A
N1266      N1272   1.317       .  A
N1266     Mn1295   2.204   1_655  S
N1267      C1274   1.351       .  A
N1268      N1270   1.315       .  A
N1268      N1269   1.323       .  A
N1268     Mn1790   2.217       .  S
N1269      C1275   1.357       .  A
N1270      N1271   1.319       .  A
N1270     Mn1801   2.192   1_655  S
N1271      C1275   1.351       .  A
N1272      N1273   1.320       .  A
N1272     Mn1284   2.203       .  S
N1273      C1274   1.351       .  A
C1274      C1483   1.466       .  S
C1275      C1493   1.484       .  S
N1276      N1282   1.315       .  A
N1276      N1277   1.319       .  A
N1277      C1285   1.351       .  A
N1278      N1279   1.323       .  A
N1278      N1280   1.317       .  A
N1279      C1286   1.354       .  A
N1280      N1281   1.320       .  A
N1281      C1286   1.350       .  A
N1282      N1283   1.319       .  A
N1282     Mn1537   2.194       .  S
N1283      C1285   1.352       .  A
Mn1284     N1774   2.217       .  S
Mn1284     N1535   2.194   1_556  S
C1285      C1460   1.466       .  S
C1286      C1510   1.471       .  S
N1287      N1288   1.320       .  A
N1287      N1293   1.315       .  A
N1288      C1296   1.352       .  A
N1289      N1291   1.316       .  A
N1289      N1290   1.321       .  A
N1289     Mn1560   2.209   1_556  S
N1290      C1297   1.352       .  A
N1291      N1292   1.321       .  A
N1292      C1297   1.352       .  A
N1293      N1294   1.319       .  A
N1294      C1296   1.350       .  A
Mn1295     N1776   2.192   1_455  S
C1296      C1443   1.462       .  S
C1297      C1500   1.469       .  S
N1298      N1299   1.318       .  A
N1298      N1304   1.314       .  A
N1298     Mn1812   2.206       .  S
N1299      C1309   1.355       .  A
N1300      N1301   1.325       .  A
N1300      N1302   1.314       .  A
N1300     Mn1307   2.213       .  S
N1301      C1310   1.358       .  A
N1302      N1303   1.316       .  A
N1302     Mn1306   2.186       .  S
N1303      C1310   1.350       .  A
N1304      N1305   1.321       .  A
N1304     Mn1813   2.192       .  S
N1305      C1309   1.353       .  A
Mn1306     N1804   2.206   1_545  S
Mn1306    Cl1308   2.536       .  S
Mn1307     N1542   2.209   1_545  S
Mn1307     N1810   2.192   1_545  S
Mn1307    Cl1308   2.554       .  S
C1309      C1453   1.484       .  S
C1310      C1473   1.483       .  S
C1311      C1413   1.624       .  S
C1311      C1420   1.581       .  S
C1311      C1433   1.608       .  S
C1311      C1440   1.580       .  S
C1312      C1390   1.609       .  S
C1312      C1400   1.573       .  S
C1312      C1430   1.599       .  S
C1312      C1503   1.577       .  S
C1313      C1373   1.593       .  S
C1313      C1380   1.596       .  S
C1313      C1393   1.582       .  S
C1313      C1450   1.556       .  S
C1314      C1360   1.616       .  S
C1314      C1370   1.592       .  S
C1314      C1410   1.603       .  S
C1314      C1470   1.573       .  S
C1315      C1340   1.600       .  S
C1315      C1350   1.602       .  S
C1315      C1423   1.627       .  S
C1315      C1490   1.572       .  S
C1316      C1330   1.613       .  S
C1316      C1343   1.579       .  S
C1316      C1363   1.596       .  S
C1316      C1463   1.585       .  S
C1317      C1320   1.603       .  S
C1317      C1333   1.575       .  S
C1317      C1383   1.610       .  S
C1317      C1513   1.569       .  S
C1318      C1323   1.566       .  S
C1318      C1353   1.607       .  S
C1318      C1403   1.590       .  S
C1318      C1480   1.554       .  S
C1319      C1320   1.432       .  A
C1319      C1324   1.430       .  A
C1319      F1326   1.354       .  S
C1320      C1321   1.409       .  A
C1321      C1322   1.354       .  A
C1321      F1328   1.340       .  S
C1322      C1323   1.398       .  A
C1322      F1327   1.354       .  S
C1323      C1324   1.428       .  A
C1324      F1325   1.354       .  S
C1329      C1330   1.441       .  A
C1329      C1334   1.405       .  A
C1329      F1336   1.360       .  S
C1330      C1331   1.435       .  A
C1331      C1332   1.406       .  A
C1331      F1338   1.341       .  S
C1332      C1333   1.404       .  A
C1332      F1337   1.357       .  S
C1333      C1334   1.406       .  A
C1334      F1335   1.359       .  S
C1339      C1340   1.414       .  A
C1339      C1344   1.388       .  A
C1339      F1346   1.350       .  S
C1340      C1341   1.438       .  A
C1341      C1342   1.420       .  A
C1341      F1348   1.356       .  S
C1342      C1343   1.416       .  A
C1342      F1347   1.356       .  S
C1343      C1344   1.408       .  A
C1344      F1345   1.350       .  S
C1349      C1350   1.424       .  A
C1349      C1354   1.412       .  A
C1349      F1356   1.354       .  S
C1350      C1351   1.423       .  A
C1351      C1352   1.409       .  A
C1351      F1358   1.344       .  S
C1352      C1353   1.414       .  A
C1352      F1357   1.348       .  S
C1353      C1354   1.423       .  A
C1354      F1355   1.358       .  S
C1359      C1360   1.439       .  A
C1359      C1364   1.418       .  A
C1359      F1366   1.343       .  S
C1360      C1361   1.417       .  A
C1361      C1362   1.394       .  A
C1361      F1368   1.346       .  S
C1362      C1363   1.418       .  A
C1362      F1367   1.354       .  S
C1363      C1364   1.413       .  A
C1364      F1365   1.359       .  S
C1369      C1370   1.431       .  A
C1369      C1374   1.426       .  A
C1369      F1376   1.357       .  S
C1370      C1371   1.421       .  A
C1371      C1372   1.389       .  A
C1371      F1378   1.349       .  S
C1372      C1373   1.405       .  A
C1372      F1377   1.353       .  S
C1373      C1374   1.423       .  A
C1374      F1375   1.354       .  S
C1379      C1380   1.425       .  A
C1379      C1384   1.434       .  A
C1379      F1386   1.354       .  S
C1380      C1381   1.413       .  A
C1381      C1382   1.369       .  A
C1381      F1388   1.346       .  S
C1382      C1383   1.402       .  A
C1382      F1387   1.332       .  S
C1383      C1384   1.437       .  A
C1384      F1385   1.353       .  S
C1389      C1390   1.425       .  A
C1389      C1394   1.384       .  A
C1389      F1396   1.345       .  S
C1390      C1391   1.435       .  A
C1391      C1392   1.419       .  A
C1391      F1398   1.347       .  S
C1392      C1393   1.420       .  A
C1392      F1397   1.357       .  S
C1393      C1394   1.398       .  A
C1394      F1395   1.335       .  S
C1399      C1400   1.430       .  A
C1399      C1404   1.415       .  A
C1399      F1406   1.357       .  S
C1400      C1401   1.414       .  A
C1401      C1402   1.385       .  A
C1401      F1408   1.348       .  S
C1402      C1403   1.425       .  A
C1402      F1407   1.359       .  S
C1403      C1404   1.411       .  A
C1404      F1405   1.358       .  S
C1409      C1410   1.418       .  A
C1409      C1414   1.418       .  A
C1409      F1416   1.360       .  S
C1410      C1411   1.399       .  A
C1411      C1412   1.400       .  A
C1411      F1418   1.352       .  S
C1412      C1413   1.429       .  A
C1412      F1417   1.342       .  S
C1413      C1414   1.438       .  A
C1414      F1415   1.343       .  S
C1419      C1420   1.427       .  A
C1419      C1424   1.416       .  A
C1419      F1426   1.357       .  S
C1420      C1421   1.412       .  A
C1421      C1422   1.392       .  A
C1421      F1428   1.344       .  S
C1422      C1423   1.420       .  A
C1422      F1427   1.348       .  S
C1423      C1424   1.425       .  A
C1424      F1425   1.347       .  S
C1429      C1430   1.424       .  A
C1429      C1434   1.389       .  A
C1429      F1436   1.344       .  S
C1430      C1431   1.427       .  A
C1431      C1432   1.420       .  A
C1431      F1438   1.358       .  S
C1432      C1433   1.428       .  A
C1432      F1437   1.360       .  S
C1433      C1434   1.421       .  A
C1434      F1435   1.350       .  S
C1439      C1440   1.429       .  A
C1439      C1444   1.403       .  A
C1439      F1446   1.353       .  S
C1440      C1441   1.428       .  A
C1441      C1442   1.391       .  A
C1441      F1448   1.359       .  S
C1442      C1443   1.390       .  A
C1442      F1447   1.359       .  S
C1443      C1444   1.395       .  A
C1444      F1445   1.358       .  S
C1449      C1450   1.415       .  A
C1449      C1454   1.405       .  A
C1449      F1456   1.358       .  S
C1450      C1451   1.426       .  A
C1451      C1452   1.390       .  A
C1451      F1458   1.357       .  S
C1452      C1453   1.400       .  A
C1452      F1457   1.358       .  S
C1453      C1454   1.408       .  A
C1454      F1455   1.357       .  S
C1459      C1460   1.390       .  A
C1459      C1464   1.398       .  A
C1459      F1466   1.359       .  S
C1460      C1461   1.390       .  A
C1461      C1462   1.394       .  A
C1461      F1468   1.359       .  S
C1462      C1463   1.437       .  A
C1462      F1467   1.353       .  S
C1463      C1464   1.432       .  A
C1464      F1465   1.342       .  S
C1469      C1470   1.423       .  A
C1469      C1474   1.395       .  A
C1469      F1476   1.356       .  S
C1470      C1471   1.416       .  A
C1471      C1472   1.404       .  A
C1471      F1478   1.353       .  S
C1472      C1473   1.402       .  A
C1472      F1477   1.357       .  S
C1473      C1474   1.404       .  A
C1474      F1475   1.358       .  S
C1479      C1480   1.422       .  A
C1479      C1484   1.397       .  A
C1479      F1486   1.357       .  S
C1480      C1481   1.426       .  A
C1481      C1482   1.400       .  A
C1481      F1488   1.354       .  S
C1482      C1483   1.395       .  A
C1482      F1487   1.358       .  S
C1483      C1484   1.396       .  A
C1484      F1485   1.358       .  S
C1489      C1490   1.420       .  A
C1489      C1494   1.401       .  A
C1489      F1496   1.355       .  S
C1490      C1491   1.417       .  A
C1491      C1492   1.400       .  A
C1491      F1498   1.354       .  S
C1492      C1493   1.401       .  A
C1492      F1497   1.358       .  S
C1493      C1494   1.406       .  A
C1494      F1495   1.358       .  S
C1499      C1500   1.396       .  A
C1499      C1504   1.404       .  A
C1499      F1506   1.358       .  S
C1500      C1501   1.392       .  A
C1501      C1502   1.394       .  A
C1501      F1508   1.359       .  S
C1502      C1503   1.429       .  A
C1502      F1507   1.359       .  S
C1503      C1504   1.430       .  A
C1504      F1505   1.353       .  S
C1509      C1510   1.400       .  A
C1509      C1514   1.404       .  A
C1509      F1516   1.358       .  S
C1510      C1511   1.391       .  A
C1511      C1512   1.396       .  A
C1511      F1518   1.359       .  S
C1512      C1513   1.433       .  A
C1512      F1517   1.355       .  S
C1513      C1514   1.422       .  A
C1514      F1515   1.359       .  S
N1519      N1520   1.321       .  A
N1519      N1525   1.317       .  A
N1519     Mn1548   2.204   1_665  S
N1520      C1527   1.351       .  A
N1521      N1523   1.315       .  A
N1521      N1522   1.323       .  A
N1522      C1528   1.357       .  A
N1523      N1524   1.319       .  A
N1524      C1528   1.351       .  A
N1525      N1526   1.320       .  A
N1525     Mn1537   2.203   1_565  S
N1526      C1527   1.351       .  A
C1527      C1736   1.466       .  S
C1528      C1746   1.484       .  S
N1529      N1535   1.315       .  A
N1529      N1530   1.319       .  A
N1530      C1538   1.351       .  A
N1531      N1532   1.323       .  A
N1531      N1533   1.317       .  A
N1531     Mn1790   2.217   1_564  S
N1532      C1539   1.354       .  A
N1533      N1534   1.320       .  A
N1534      C1539   1.350       .  A
N1535      N1536   1.319       .  A
N1536      C1538   1.352       .  A
Mn1537     N1784   2.217   1_545  S
C1538      C1713   1.466       .  S
C1539      C1763   1.471       .  S
N1540      N1541   1.320       .  A
N1540      N1546   1.315       .  A
N1541      C1549   1.352       .  A
N1542      N1544   1.316       .  A
N1542      N1543   1.321       .  A
N1543      C1550   1.352       .  A
N1544      N1545   1.321       .  A
N1545      C1550   1.352       .  A
N1546      N1547   1.319       .  A
N1546     Mn1813   2.189       .  S
N1547      C1549   1.350       .  A
C1549      C1696   1.462       .  S
C1550      C1753   1.469       .  S
N1551      N1552   1.318       .  A
N1551      N1557   1.314       .  A
N1552      C1562   1.355       .  A
N1553      N1554   1.325       .  A
N1553      N1555   1.314       .  A
N1553     Mn1560   2.213       .  S
N1554      C1563   1.358       .  A
N1555      N1556   1.316       .  A
N1555     Mn1559   2.186       .  S
N1556      C1563   1.350       .  A
N1557      N1558   1.321       .  A
N1558      C1562   1.353       .  A
Mn1559    Cl1561   2.536   1_554  S
Mn1560     N1799   2.189   1_554  S
Mn1560    Cl1561   2.554   1_554  S
C1562      C1706   1.484       .  S
C1563      C1726   1.483       .  S
C1564      C1666   1.624       .  S
C1564      C1673   1.581       .  S
C1564      C1686   1.608       .  S
C1564      C1693   1.580       .  S
C1565      C1643   1.609       .  S
C1565      C1653   1.573       .  S
C1565      C1683   1.599       .  S
C1565      C1756   1.577       .  S
C1566      C1626   1.593       .  S
C1566      C1633   1.596       .  S
C1566      C1646   1.582       .  S
C1566      C1703   1.556       .  S
C1567      C1613   1.616       .  S
C1567      C1623   1.592       .  S
C1567      C1663   1.603       .  S
C1567      C1723   1.573       .  S
C1568      C1593   1.600       .  S
C1568      C1603   1.602       .  S
C1568      C1676   1.627       .  S
C1568      C1743   1.572       .  S
C1569      C1583   1.613       .  S
C1569      C1596   1.579       .  S
C1569      C1616   1.596       .  S
C1569      C1716   1.585       .  S
C1570      C1573   1.603       .  S
C1570      C1586   1.575       .  S
C1570      C1636   1.610       .  S
C1570      C1766   1.569       .  S
C1571      C1576   1.566       .  S
C1571      C1606   1.607       .  S
C1571      C1656   1.590       .  S
C1571      C1733   1.554       .  S
C1572      C1573   1.432       .  A
C1572      C1577   1.430       .  A
C1572      F1579   1.354       .  S
C1573      C1574   1.409       .  A
C1574      C1575   1.354       .  A
C1574      F1581   1.340       .  S
C1575      C1576   1.398       .  A
C1575      F1580   1.354       .  S
C1576      C1577   1.428       .  A
C1577      F1578   1.354       .  S
C1582      C1583   1.441       .  A
C1582      C1587   1.405       .  A
C1582      F1589   1.360       .  S
C1583      C1584   1.435       .  A
C1584      C1585   1.406       .  A
C1584      F1591   1.341       .  S
C1585      C1586   1.404       .  A
C1585      F1590   1.357       .  S
C1586      C1587   1.406       .  A
C1587      F1588   1.359       .  S
C1592      C1593   1.414       .  A
C1592      C1597   1.388       .  A
C1592      F1599   1.350       .  S
C1593      C1594   1.438       .  A
C1594      C1595   1.420       .  A
C1594      F1601   1.356       .  S
C1595      C1596   1.416       .  A
C1595      F1600   1.356       .  S
C1596      C1597   1.408       .  A
C1597      F1598   1.350       .  S
C1602      C1603   1.424       .  A
C1602      C1607   1.412       .  A
C1602      F1609   1.354       .  S
C1603      C1604   1.423       .  A
C1604      C1605   1.409       .  A
C1604      F1611   1.344       .  S
C1605      C1606   1.414       .  A
C1605      F1610   1.348       .  S
C1606      C1607   1.423       .  A
C1607      F1608   1.358       .  S
C1612      C1613   1.439       .  A
C1612      C1617   1.418       .  A
C1612      F1619   1.343       .  S
C1613      C1614   1.417       .  A
C1614      C1615   1.394       .  A
C1614      F1621   1.346       .  S
C1615      C1616   1.418       .  A
C1615      F1620   1.354       .  S
C1616      C1617   1.413       .  A
C1617      F1618   1.359       .  S
C1622      C1623   1.431       .  A
C1622      C1627   1.426       .  A
C1622      F1629   1.357       .  S
C1623      C1624   1.421       .  A
C1624      C1625   1.389       .  A
C1624      F1631   1.349       .  S
C1625      C1626   1.405       .  A
C1625      F1630   1.353       .  S
C1626      C1627   1.423       .  A
C1627      F1628   1.354       .  S
C1632      C1633   1.425       .  A
C1632      C1637   1.434       .  A
C1632      F1639   1.354       .  S
C1633      C1634   1.413       .  A
C1634      C1635   1.369       .  A
C1634      F1641   1.346       .  S
C1635      C1636   1.402       .  A
C1635      F1640   1.332       .  S
C1636      C1637   1.437       .  A
C1637      F1638   1.353       .  S
C1642      C1643   1.425       .  A
C1642      C1647   1.384       .  A
C1642      F1649   1.345       .  S
C1643      C1644   1.435       .  A
C1644      C1645   1.419       .  A
C1644      F1651   1.347       .  S
C1645      C1646   1.420       .  A
C1645      F1650   1.357       .  S
C1646      C1647   1.398       .  A
C1647      F1648   1.335       .  S
C1652      C1653   1.430       .  A
C1652      C1657   1.415       .  A
C1652      F1659   1.357       .  S
C1653      C1654   1.414       .  A
C1654      C1655   1.385       .  A
C1654      F1661   1.348       .  S
C1655      C1656   1.425       .  A
C1655      F1660   1.359       .  S
C1656      C1657   1.411       .  A
C1657      F1658   1.358       .  S
C1662      C1663   1.418       .  A
C1662      C1667   1.418       .  A
C1662      F1669   1.360       .  S
C1663      C1664   1.399       .  A
C1664      C1665   1.400       .  A
C1664      F1671   1.352       .  S
C1665      C1666   1.429       .  A
C1665      F1670   1.342       .  S
C1666      C1667   1.438       .  A
C1667      F1668   1.343       .  S
C1672      C1673   1.427       .  A
C1672      C1677   1.416       .  A
C1672      F1679   1.357       .  S
C1673      C1674   1.412       .  A
C1674      C1675   1.392       .  A
C1674      F1681   1.344       .  S
C1675      C1676   1.420       .  A
C1675      F1680   1.348       .  S
C1676      C1677   1.425       .  A
C1677      F1678   1.347       .  S
C1682      C1683   1.424       .  A
C1682      C1687   1.389       .  A
C1682      F1689   1.344       .  S
C1683      C1684   1.427       .  A
C1684      C1685   1.420       .  A
C1684      F1691   1.358       .  S
C1685      C1686   1.428       .  A
C1685      F1690   1.360       .  S
C1686      C1687   1.421       .  A
C1687      F1688   1.350       .  S
C1692      C1693   1.429       .  A
C1692      C1697   1.403       .  A
C1692      F1699   1.353       .  S
C1693      C1694   1.428       .  A
C1694      C1695   1.391       .  A
C1694      F1701   1.359       .  S
C1695      C1696   1.390       .  A
C1695      F1700   1.359       .  S
C1696      C1697   1.395       .  A
C1697      F1698   1.358       .  S
C1702      C1703   1.415       .  A
C1702      C1707   1.405       .  A
C1702      F1709   1.358       .  S
C1703      C1704   1.426       .  A
C1704      C1705   1.390       .  A
C1704      F1711   1.357       .  S
C1705      C1706   1.400       .  A
C1705      F1710   1.358       .  S
C1706      C1707   1.408       .  A
C1707      F1708   1.357       .  S
C1712      C1713   1.390       .  A
C1712      C1717   1.398       .  A
C1712      F1719   1.359       .  S
C1713      C1714   1.390       .  A
C1714      C1715   1.394       .  A
C1714      F1721   1.359       .  S
C1715      C1716   1.437       .  A
C1715      F1720   1.353       .  S
C1716      C1717   1.432       .  A
C1717      F1718   1.342       .  S
C1722      C1723   1.423       .  A
C1722      C1727   1.395       .  A
C1722      F1729   1.356       .  S
C1723      C1724   1.416       .  A
C1724      C1725   1.404       .  A
C1724      F1731   1.353       .  S
C1725      C1726   1.402       .  A
C1725      F1730   1.357       .  S
C1726      C1727   1.404       .  A
C1727      F1728   1.358       .  S
C1732      C1733   1.422       .  A
C1732      C1737   1.397       .  A
C1732      F1739   1.357       .  S
C1733      C1734   1.426       .  A
C1734      C1735   1.400       .  A
C1734      F1741   1.354       .  S
C1735      C1736   1.395       .  A
C1735      F1740   1.358       .  S
C1736      C1737   1.396       .  A
C1737      F1738   1.358       .  S
C1742      C1743   1.420       .  A
C1742      C1747   1.401       .  A
C1742      F1749   1.355       .  S
C1743      C1744   1.417       .  A
C1744      C1745   1.400       .  A
C1744      F1751   1.354       .  S
C1745      C1746   1.401       .  A
C1745      F1750   1.358       .  S
C1746      C1747   1.406       .  A
C1747      F1748   1.358       .  S
C1752      C1753   1.396       .  A
C1752      C1757   1.404       .  A
C1752      F1759   1.358       .  S
C1753      C1754   1.392       .  A
C1754      C1755   1.394       .  A
C1754      F1761   1.359       .  S
C1755      C1756   1.429       .  A
C1755      F1760   1.359       .  S
C1756      C1757   1.430       .  A
C1757      F1758   1.353       .  S
C1762      C1763   1.400       .  A
C1762      C1767   1.404       .  A
C1762      F1769   1.358       .  S
C1763      C1764   1.391       .  A
C1764      C1765   1.396       .  A
C1764      F1771   1.359       .  S
C1765      C1766   1.433       .  A
C1765      F1770   1.355       .  S
C1766      C1767   1.422       .  A
C1767      F1768   1.359       .  S
N1772      N1773   1.320       .  A
N1772      N1778   1.317       .  A
N1772     Mn1801   2.204   1_665  S
N1773      C1780   1.351       .  A
N1774      N1776   1.315       .  A
N1774      N1775   1.323       .  A
N1775      C1781   1.357       .  A
N1776      N1777   1.319       .  A
N1777      C1781   1.351       .  A
N1778      N1779   1.320       .  A
N1778     Mn1790   2.203   1_565  S
N1779      C1780   1.351       .  A
C1780      C1989   1.466       .  S
C1781      C1999   1.484       .  S
N1782      N1788   1.315       .  A
N1782      N1783   1.319       .  A
N1783      C1791   1.351       .  A
N1784      N1785   1.323       .  A
N1784      N1786   1.317       .  A
N1785      C1792   1.354       .  A
N1786      N1787   1.320       .  A
N1787      C1792   1.350       .  A
N1788      N1789   1.319       .  A
N1789      C1791   1.352       .  A
C1791      C1966   1.466       .  S
C1792      C2016   1.471       .  S
N1793      N1794   1.320       .  A
N1793      N1799   1.315       .  A
N1794      C1802   1.352       .  A
N1795      N1797   1.316       .  A
N1795      N1796   1.321       .  A
N1796      C1803   1.352       .  A
N1797      N1798   1.321       .  A
N1798      C1803   1.352       .  A
N1799      N1800   1.319       .  A
N1800      C1802   1.350       .  A
C1802      C1949   1.462       .  S
C1803      C2006   1.469       .  S
N1804      N1805   1.318       .  A
N1804      N1810   1.314       .  A
N1805      C1815   1.355       .  A
N1806      N1807   1.325       .  A
N1806      N1808   1.314       .  A
N1806     Mn1813   2.213       .  S
N1807      C1816   1.358       .  A
N1808      N1809   1.316       .  A
N1808     Mn1812   2.186       .  S
N1809      C1816   1.350       .  A
N1810      N1811   1.321       .  A
N1811      C1815   1.353       .  A
Mn1812    Cl1814   2.536       .  S
Mn1813    Cl1814   2.554       .  S
C1815      C1959   1.484       .  S
C1816      C1979   1.483       .  S
C1817      C1919   1.624       .  S
C1817      C1926   1.581       .  S
C1817      C1939   1.608       .  S
C1817      C1946   1.580       .  S
C1818      C1896   1.609       .  S
C1818      C1906   1.573       .  S
C1818      C1936   1.599       .  S
C1818      C2009   1.577       .  S
C1819      C1879   1.593       .  S
C1819      C1886   1.596       .  S
C1819      C1899   1.582       .  S
C1819      C1956   1.556       .  S
C1820      C1866   1.616       .  S
C1820      C1876   1.592       .  S
C1820      C1916   1.603       .  S
C1820      C1976   1.573       .  S
C1821      C1846   1.600       .  S
C1821      C1856   1.602       .  S
C1821      C1929   1.627       .  S
C1821      C1996   1.572       .  S
C1822      C1836   1.613       .  S
C1822      C1849   1.579       .  S
C1822      C1869   1.596       .  S
C1822      C1969   1.585       .  S
C1823      C1826   1.603       .  S
C1823      C1839   1.575       .  S
C1823      C1889   1.610       .  S
C1823      C2019   1.569       .  S
C1824      C1829   1.566       .  S
C1824      C1859   1.607       .  S
C1824      C1909   1.590       .  S
C1824      C1986   1.554       .  S
C1825      C1826   1.432       .  A
C1825      C1830   1.430       .  A
C1825      F1832   1.354       .  S
C1826      C1827   1.409       .  A
C1827      C1828   1.354       .  A
C1827      F1834   1.340       .  S
C1828      C1829   1.398       .  A
C1828      F1833   1.354       .  S
C1829      C1830   1.428       .  A
C1830      F1831   1.354       .  S
C1835      C1836   1.441       .  A
C1835      C1840   1.405       .  A
C1835      F1842   1.360       .  S
C1836      C1837   1.435       .  A
C1837      C1838   1.406       .  A
C1837      F1844   1.341       .  S
C1838      C1839   1.404       .  A
C1838      F1843   1.357       .  S
C1839      C1840   1.406       .  A
C1840      F1841   1.359       .  S
C1845      C1846   1.414       .  A
C1845      C1850   1.388       .  A
C1845      F1852   1.350       .  S
C1846      C1847   1.438       .  A
C1847      C1848   1.420       .  A
C1847      F1854   1.356       .  S
C1848      C1849   1.416       .  A
C1848      F1853   1.356       .  S
C1849      C1850   1.408       .  A
C1850      F1851   1.350       .  S
C1855      C1856   1.424       .  A
C1855      C1860   1.412       .  A
C1855      F1862   1.354       .  S
C1856      C1857   1.423       .  A
C1857      C1858   1.409       .  A
C1857      F1864   1.344       .  S
C1858      C1859   1.414       .  A
C1858      F1863   1.348       .  S
C1859      C1860   1.423       .  A
C1860      F1861   1.358       .  S
C1865      C1866   1.439       .  A
C1865      C1870   1.418       .  A
C1865      F1872   1.343       .  S
C1866      C1867   1.417       .  A
C1867      C1868   1.394       .  A
C1867      F1874   1.346       .  S
C1868      C1869   1.418       .  A
C1868      F1873   1.354       .  S
C1869      C1870   1.413       .  A
C1870      F1871   1.359       .  S
C1875      C1876   1.431       .  A
C1875      C1880   1.426       .  A
C1875      F1882   1.357       .  S
C1876      C1877   1.421       .  A
C1877      C1878   1.389       .  A
C1877      F1884   1.349       .  S
C1878      C1879   1.405       .  A
C1878      F1883   1.353       .  S
C1879      C1880   1.423       .  A
C1880      F1881   1.354       .  S
C1885      C1886   1.425       .  A
C1885      C1890   1.434       .  A
C1885      F1892   1.354       .  S
C1886      C1887   1.413       .  A
C1887      C1888   1.369       .  A
C1887      F1894   1.346       .  S
C1888      C1889   1.402       .  A
C1888      F1893   1.332       .  S
C1889      C1890   1.437       .  A
C1890      F1891   1.353       .  S
C1895      C1896   1.425       .  A
C1895      C1900   1.384       .  A
C1895      F1902   1.345       .  S
C1896      C1897   1.435       .  A
C1897      C1898   1.419       .  A
C1897      F1904   1.347       .  S
C1898      C1899   1.420       .  A
C1898      F1903   1.357       .  S
C1899      C1900   1.398       .  A
C1900      F1901   1.335       .  S
C1905      C1906   1.430       .  A
C1905      C1910   1.415       .  A
C1905      F1912   1.357       .  S
C1906      C1907   1.414       .  A
C1907      C1908   1.385       .  A
C1907      F1914   1.348       .  S
C1908      C1909   1.425       .  A
C1908      F1913   1.359       .  S
C1909      C1910   1.411       .  A
C1910      F1911   1.358       .  S
C1915      C1916   1.418       .  A
C1915      C1920   1.418       .  A
C1915      F1922   1.360       .  S
C1916      C1917   1.399       .  A
C1917      C1918   1.400       .  A
C1917      F1924   1.352       .  S
C1918      C1919   1.429       .  A
C1918      F1923   1.342       .  S
C1919      C1920   1.438       .  A
C1920      F1921   1.343       .  S
C1925      C1926   1.427       .  A
C1925      C1930   1.416       .  A
C1925      F1932   1.357       .  S
C1926      C1927   1.412       .  A
C1927      C1928   1.392       .  A
C1927      F1934   1.344       .  S
C1928      C1929   1.420       .  A
C1928      F1933   1.348       .  S
C1929      C1930   1.425       .  A
C1930      F1931   1.347       .  S
C1935      C1936   1.424       .  A
C1935      C1940   1.389       .  A
C1935      F1942   1.344       .  S
C1936      C1937   1.427       .  A
C1937      C1938   1.420       .  A
C1937      F1944   1.358       .  S
C1938      C1939   1.428       .  A
C1938      F1943   1.360       .  S
C1939      C1940   1.421       .  A
C1940      F1941   1.350       .  S
C1945      C1946   1.429       .  A
C1945      C1950   1.403       .  A
C1945      F1952   1.353       .  S
C1946      C1947   1.428       .  A
C1947      C1948   1.391       .  A
C1947      F1954   1.359       .  S
C1948      C1949   1.390       .  A
C1948      F1953   1.359       .  S
C1949      C1950   1.395       .  A
C1950      F1951   1.358       .  S
C1955      C1956   1.415       .  A
C1955      C1960   1.405       .  A
C1955      F1962   1.358       .  S
C1956      C1957   1.426       .  A
C1957      C1958   1.390       .  A
C1957      F1964   1.357       .  S
C1958      C1959   1.400       .  A
C1958      F1963   1.358       .  S
C1959      C1960   1.408       .  A
C1960      F1961   1.357       .  S
C1965      C1966   1.390       .  A
C1965      C1970   1.398       .  A
C1965      F1972   1.359       .  S
C1966      C1967   1.390       .  A
C1967      C1968   1.394       .  A
C1967      F1974   1.359       .  S
C1968      C1969   1.437       .  A
C1968      F1973   1.353       .  S
C1969      C1970   1.432       .  A
C1970      F1971   1.342       .  S
C1975      C1976   1.423       .  A
C1975      C1980   1.395       .  A
C1975      F1982   1.356       .  S
C1976      C1977   1.416       .  A
C1977      C1978   1.404       .  A
C1977      F1984   1.353       .  S
C1978      C1979   1.402       .  A
C1978      F1983   1.357       .  S
C1979      C1980   1.404       .  A
C1980      F1981   1.358       .  S
C1985      C1986   1.422       .  A
C1985      C1990   1.397       .  A
C1985      F1992   1.357       .  S
C1986      C1987   1.426       .  A
C1987      C1988   1.400       .  A
C1987      F1994   1.354       .  S
C1988      C1989   1.395       .  A
C1988      F1993   1.358       .  S
C1989      C1990   1.396       .  A
C1990      F1991   1.358       .  S
C1995      C1996   1.420       .  A
C1995      C2000   1.401       .  A
C1995      F2002   1.355       .  S
C1996      C1997   1.417       .  A
C1997      C1998   1.400       .  A
C1997      F2004   1.354       .  S
C1998      C1999   1.401       .  A
C1998      F2003   1.358       .  S
C1999      C2000   1.406       .  A
C2000      F2001   1.358       .  S
C2005      C2006   1.396       .  A
C2005      C2010   1.404       .  A
C2005      F2012   1.358       .  S
C2006      C2007   1.392       .  A
C2007      C2008   1.394       .  A
C2007      F2014   1.359       .  S
C2008      C2009   1.429       .  A
C2008      F2013   1.359       .  S
C2009      C2010   1.430       .  A
C2010      F2011   1.353       .  S
C2015      C2016   1.400       .  A
C2015      C2020   1.404       .  A
C2015      F2022   1.358       .  S
C2016      C2017   1.391       .  A
C2017      C2018   1.396       .  A
C2017      F2024   1.359       .  S
C2018      C2019   1.433       .  A
C2018      F2023   1.355       .  S
C2019      C2020   1.422       .  A
C2020      F2021   1.359       .  S
