geometry optimzed in LAMMPS
_audit_creation_date              2020-12-01 
_audit_creation_method            'lammps2cif' 
_symmetry_space_group_name_H-M    'P1' 
_symmetry_Int_Tables_number       1 
_symmetry_cell_setting            triclinic 
loop_ 
_symmetry_equiv_pos_as_xyz 
  x,y,z 
_cell_length_a                    39.35777404 
_cell_length_b                    37.21869675197032 
_cell_length_c                    36.93352308760193 
_cell_angle_alpha                 90.12231121726573 
_cell_angle_beta                  89.8938773193064 
_cell_angle_gamma                 89.92138790586576 
loop_ 
_atom_site_label 
_atom_site_type_symbol 
_atom_site_fract_x 
_atom_site_fract_y 
_atom_site_fract_z 
_atom_site_charge 
N1          N  0.45951422  0.45440810  0.06525642    -0.06400
N2          N  0.43561968  0.44611621  0.08895109    -0.58600
N3          N  0.03879026  0.43116388  0.04253289    -0.06100
N4          N  0.06204449  0.40665689  0.04965812    -0.60700
N5          N  0.03722912  0.45510054  0.06879380    -0.05700
N6          N  0.05926394  0.44714059  0.09451832    -0.58500
N7          N  0.46126219  0.42974308  0.03973367    -0.05400
N8          N  0.43879090  0.40409192  0.04561725    -0.61000
C9          C  0.42272548  0.41493397  0.07607885     0.95700
C10         C  0.07478740  0.41715125  0.08190852     0.95500
N11         N  0.04238729  0.45831548  0.43280656    -0.06600
N12         N  0.06653529  0.45230627  0.40882768    -0.59100
N13         N  0.46377312  0.43218498  0.45466273    -0.04700
N14         N  0.44061120  0.40776424  0.44692954    -0.60400
N15         N  0.46447282  0.45732224  0.42965428    -0.06600
N16         N  0.44190000  0.45023012  0.40414740    -0.59400
N17         N  0.04159593  0.43237480  0.45684721    -0.04400
N18         N  0.06502553  0.40800303  0.44927919    -0.60500
Mn19       Mn  0.00144081  0.43052868  0.99841021     1.18400
C20         C  0.08064460  0.42081959  0.41921287     0.97800
C21         C  0.42693617  0.41948902  0.41558021     0.98500
N22         N  0.03646608  0.04056163  0.07097531    -0.06700
N23         N  0.05841861  0.04780713  0.09703908    -0.63000
N24         N  0.46012445  0.06546966  0.04241574    -0.05500
N25         N  0.43723173  0.09044071  0.04959698    -0.63600
N26         N  0.45880845  0.03970285  0.06675941    -0.06200
N27         N  0.43480482  0.04649138  0.09081744    -0.63200
N28         N  0.03763460  0.06558277  0.04586334    -0.05100
N29         N  0.06051844  0.09011776  0.05410949    -0.63900
Mn30       Mn  0.49791293  0.99743867  0.06894342     1.10700
C31         C  0.07347121  0.07854848  0.08585871     0.99000
C32         C  0.42136362  0.07793284  0.07947441     0.99100
N33         N  0.46425592  0.04259186  0.43132682    -0.06200
N34         N  0.44192097  0.04989531  0.40575194    -0.61600
N35         N  0.04143443  0.06722804  0.46055232    -0.05500
N36         N  0.06574975  0.09117723  0.45593780    -0.58300
N37         N  0.04233520  0.04311947  0.43453594    -0.06800
N38         N  0.06728624  0.05045265  0.41172594    -0.61100
N39         N  0.46353528  0.06746735  0.45669217    -0.05800
N40         N  0.44082461  0.09238675  0.44873398    -0.58300
Mn41       Mn  0.00334810  0.50035906  0.43110303     1.20200
Mn42       Mn  0.50066836  0.06731754  0.50138869     1.10100
Cl43       Cl  0.00081809  0.99892514  0.99999150    -0.86300
C44         C  0.42728013  0.08077902  0.41716596     0.96100
C45         C  0.08210030  0.08045342  0.42545787     0.95900
C46         C  0.17535336  0.16972074  0.33877304     0.86200
C47         C  0.16836911  0.16290402  0.29782371    -0.54100
C48         C  0.18818152  0.18254605  0.27475025     0.09100
C49         C  0.21208706  0.20782438  0.29556201     0.20000
C50         C  0.21407963  0.16432222  0.34357443    -0.54800
C51         C  0.23374751  0.18429369  0.32078011     0.09200
C52         C  0.16937741  0.21104141  0.34203143    -0.54300
C53         C  0.18939263  0.23139995  0.31978590     0.09800
H54         H  0.14884737  0.14472566  0.28823213     0.14300
H55         H  0.22695758  0.22330086  0.27798233     0.00000
H56         H  0.22461385  0.14586790  0.36329260     0.14600
H57         H  0.14988217  0.22306314  0.35882279     0.14400
C58         C  0.17554142  0.33533524  0.33108368     0.86200
C59         C  0.16968711  0.29462774  0.33839445    -0.54100
C60         C  0.18944366  0.27213878  0.31787304     0.09100
C61         C  0.21233534  0.29331838  0.29166441     0.20000
C62         C  0.21422690  0.34121684  0.33547472    -0.54800
C63         C  0.23397212  0.31891154  0.31493046     0.09200
C64         C  0.16836851  0.33799807  0.28985411    -0.54300
C65         C  0.18849599  0.31681790  0.26877206     0.09800
H66         H  0.15115163  0.28477851  0.35769552     0.14300
H67         H  0.22719369  0.27627275  0.27540814     0.00000
H68         H  0.22468480  0.36117660  0.35374708     0.14600
H69         H  0.14759216  0.35320660  0.27840072     0.14400
C70         C  0.17026681  0.32861329  0.16523638     0.86200
C71         C  0.16692440  0.33630995  0.20647688    -0.54100
C72         C  0.18693558  0.31522926  0.22794041     0.09100
C73         C  0.20920238  0.28985277  0.20549168     0.20000
C74         C  0.20900558  0.33470256  0.15882192    -0.54800
C75         C  0.22968629  0.31350068  0.17949867     0.09200
C76         C  0.16476223  0.28763499  0.16106222    -0.54300
C77         C  0.18521298  0.26698812  0.18245651     0.09800
H78         H  0.15066234  0.35725091  0.21734220     0.14300
H79         H  0.22488727  0.27425076  0.22199710     0.00000
H80         H  0.21931162  0.35572579  0.14192050     0.14600
H81         H  0.14593016  0.27641006  0.14288007     0.14400
C82         C  0.16963911  0.16397267  0.17193814     0.86200
C83         C  0.16421257  0.20448721  0.16503466    -0.54100
C84         C  0.18486435  0.22646358  0.18457750     0.09100
C85         C  0.20881743  0.20511928  0.20932617     0.20000
C86         C  0.20828255  0.15722089  0.16557037    -0.54800
C87         C  0.22916395  0.17967067  0.18470674     0.09200
C88         C  0.16653183  0.15893211  0.21368321    -0.54300
C89         C  0.18661143  0.18130767  0.23369112     0.09800
H90         H  0.14554749  0.21448713  0.14596068     0.14300
H91         H  0.22464098  0.22175756  0.22466690     0.00000
H92         H  0.21815957  0.13565650  0.14885904     0.14600
H93         H  0.15069991  0.13858109  0.22609402     0.14400
C94         C  0.33181186  0.16797729  0.33215600     0.86200
C95         C  0.33663637  0.20918319  0.33751704    -0.54100
C96         C  0.31650788  0.23007084  0.31601810     0.09100
C97         C  0.29253881  0.20717887  0.29279148     0.20000
C98         C  0.29321273  0.16335865  0.34054495    -0.54800
C99         C  0.27223933  0.18361857  0.31915996     0.09200
C100        C  0.33545961  0.16133550  0.29102811    -0.54300
C101        C  0.31478312  0.18195096  0.27000011     0.09800
H102        H  0.35372454  0.22063294  0.35738181     0.14300
H103        H  0.27678267  0.22303681  0.27661047     0.00000
H104        H  0.28348482  0.14695804  0.36238686     0.14600
H105        H  0.35316914  0.14183351  0.27995473     0.14400
C106        C  0.32623604  0.16369388  0.16648911     0.86200
C107        C  0.33254426  0.15916300  0.20752289    -0.54100
C108        C  0.31332520  0.18089397  0.22911208     0.09100
C109        C  0.28943191  0.20484437  0.20691944     0.20000
C110        C  0.28723412  0.15859373  0.16139772    -0.54800
C111        C  0.26764152  0.17959203  0.18355015     0.09200
C112        C  0.33059403  0.20448295  0.15880436    -0.54300
C113        C  0.31176516  0.22648603  0.18063423     0.09800
H114        H  0.35100834  0.14027327  0.21811825     0.14300
H115        H  0.27461936  0.22169107  0.22340055     0.00000
H116        H  0.27582205  0.14243432  0.14039347     0.14600
H117        H  0.34705854  0.21471247  0.13765319     0.14400
C118        C  0.32687623  0.32898481  0.16206260     0.86200
C119        C  0.33142662  0.28775884  0.15689834    -0.54100
C120        C  0.31214599  0.26717038  0.17965725     0.09100
C121        C  0.28972336  0.29045326  0.20447925     0.20000
C122        C  0.28790566  0.33350776  0.15616001    -0.54800
C123        C  0.26814260  0.31406447  0.17934787     0.09200
C124        C  0.33280574  0.33600118  0.20284844    -0.54300
C125        C  0.31347184  0.31561277  0.22547711     0.09800
H126        H  0.34808882  0.27622523  0.13655480     0.14300
H127        H  0.27479901  0.27476473  0.22183828     0.00000
H128        H  0.27666984  0.34746781  0.13355353     0.14600
H129        H  0.35133841  0.35528813  0.21253258     0.14400
C130        C  0.33219767  0.33308739  0.32823598     0.86200
C131        C  0.29350565  0.34004973  0.33454403    -0.54100
C132        C  0.27250718  0.31813711  0.31481056     0.09100
C133        C  0.29282520  0.29248580  0.29040197     0.20000
C134        C  0.33737496  0.29244334  0.33472867    -0.54800
C135        C  0.31658920  0.27074433  0.31495510     0.09200
C136        C  0.33537423  0.33845350  0.28658348    -0.54300
C137        C  0.31517028  0.31636845  0.26639626     0.09800
H138        H  0.28377900  0.36127424  0.35181252     0.14300
H139        H  0.27708056  0.27579327  0.27505156     0.00000
H140        H  0.35616321  0.28216347  0.35350721     0.14600
H141        H  0.35108266  0.35899259  0.27434703     0.14400
C142        C  0.11024535  0.10122919  0.40713261    -0.05700
C143        C  0.12023222  0.13580396  0.41957760    -0.02800
C144        C  0.14339062  0.15684127  0.39928950     0.02200
C145        C  0.15490256  0.14507953  0.36474171    -0.05700
C146        C  0.15064460  0.10801421  0.35664050    -0.02800
C147        C  0.12798239  0.08658972  0.37704997     0.02200
C148        C  0.10795522  0.14984743  0.45390559     0.36900
C149        C  0.17145214  0.09087557  0.32900992     0.36900
C150        C  0.12469077  0.04887133  0.36784583     0.35300
C151        C  0.15822944  0.18824221  0.41640687     0.35300
N152        N  0.12265094  0.01873841  0.36045819    -0.39500
N153        N  0.17012131  0.21304190  0.43045513    -0.39500
N154        N  0.18822537  0.07707836  0.30726447    -0.39000
N155        N  0.09854594  0.16125371  0.48133875    -0.39000
C156        C  0.09903752  0.39513938  0.10291321    -0.05700
C157        C  0.08821715  0.37770175  0.13466463    -0.02800
C158        C  0.11044773  0.35435507  0.15319964     0.02200
C159        C  0.14487449  0.35018059  0.14166576    -0.05700
C160        C  0.15365225  0.36404914  0.10693163    -0.02800
C161        C  0.13148186  0.38773784  0.08874167     0.02200
C162        C  0.05361177  0.38268830  0.14752818     0.36900
C163        C  0.18290357  0.35073056  0.08711090     0.36900
C164        C  0.14220424  0.40485331  0.05532581     0.35300
C165        C  0.09669543  0.33275518  0.18247083     0.35300
N166        N  0.15079166  0.41878085  0.02886621    -0.39500
N167        N  0.08548245  0.31550053  0.20562323    -0.39500
N168        N  0.20595900  0.34018421  0.07071389    -0.39000
N169        N  0.02605009  0.38670413  0.15776122    -0.39000
C170        C  0.35098504  0.13960963  0.14465623    -0.05700
C171        C  0.34123568  0.10603771  0.12917382    -0.02800
C172        C  0.36365808  0.08741369  0.10596974     0.02200
C173        C  0.39718554  0.09928061  0.10128289    -0.05700
C174        C  0.40861053  0.12975775  0.12015464    -0.02800
C175        C  0.38602617  0.14938229  0.14230387     0.02200
C176        C  0.31058497  0.08746289  0.14023721     0.36900
C177        C  0.44398297  0.14055753  0.11735033     0.36900
C178        C  0.39982759  0.17842613  0.16411696     0.35900
C179        C  0.35182923  0.05640930  0.08592396     0.35300
N180        N  0.41100293  0.20152375  0.18140472    -0.39500
N181        N  0.34201521  0.03224979  0.06929302    -0.39500
N182        N  0.47213577  0.14921127  0.11505776    -0.39000
N183        N  0.28648118  0.07180371  0.14879772    -0.39000
C184        C  0.14446214  0.14172696  0.14888295    -0.05700
C185        C  0.15210947  0.13162320  0.11249198    -0.02800
C186        C  0.12945895  0.10977823  0.09261253     0.02200
C187        C  0.09796200  0.09972375  0.10761232    -0.05700
C188        C  0.08807805  0.11396334  0.14138286    -0.02800
C189        C  0.11042934  0.13628105  0.16100246     0.02200
C190        C  0.18091085  0.14696394  0.09346382     0.36900
C191        C  0.05384899  0.10794488  0.15481370     0.36900
C192        C  0.09662402  0.15686746  0.19109990     0.35300
C193        C  0.13828109  0.09819382  0.05620213     0.35300
N194        N  0.08544884  0.17351806  0.21481703    -0.39500
N195        N  0.14512652  0.08902197  0.02712432    -0.39500
N196        N  0.02658076  0.10350500  0.16568075    -0.39000
N197        N  0.20361414  0.15939255  0.07796788    -0.39000
C198        C  0.40288874  0.39776265  0.39366886    -0.05700
C199        C  0.41296063  0.38466027  0.35948134    -0.02800
C200        C  0.39110117  0.36217660  0.33935339     0.02200
C201        C  0.35734890  0.35517936  0.35162250    -0.05700
C202        C  0.34988072  0.36374170  0.38841472    -0.02800
C203        C  0.37195257  0.38591418  0.40873139     0.02200
C204        C  0.44709331  0.39180221  0.34628399     0.36900
C205        C  0.32187863  0.34647418  0.40710488     0.36900
C206        C  0.36311874  0.39592654  0.44559009     0.35300
C207        C  0.40535240  0.34289229  0.30864152     0.35300
N208        N  0.35618697  0.40379110  0.47503005    -0.39500
N209        N  0.41698165  0.32736571  0.28440320    -0.39500
N210        N  0.29985947  0.33229990  0.42218159    -0.39000
N211        N  0.47437343  0.39716421  0.33587958    -0.39000
C212        C  0.40333738  0.10202894  0.39487622    -0.05700
C213        C  0.41373128  0.13511150  0.38021794    -0.02800
C214        C  0.39158407  0.15484590  0.35778940     0.02200
C215        C  0.35708688  0.14397408  0.35332640    -0.05700
C216        C  0.34871164  0.10820519  0.36394337    -0.02800
C217        C  0.37153054  0.08778131  0.38514612     0.02200
C218        C  0.44806885  0.14793914  0.38651506     0.36900
C219        C  0.31850534  0.09049226  0.35033295     0.36900
C220        C  0.36250228  0.05171565  0.39657602     0.35300
C221        C  0.40582497  0.18395176  0.33648342     0.35300
N222        N  0.35549585  0.02287247  0.40552224    -0.39500
N223        N  0.41734967  0.20692223  0.31932945    -0.39500
N224        N  0.29459968  0.07591484  0.33954217    -0.39000
N225        N  0.47542562  0.15817486  0.39147800    -0.39000
C226        C  0.15480992  0.36096910  0.35553628    -0.05700
C227        C  0.14055595  0.39330559  0.34216544    -0.02800
C228        C  0.11488151  0.41114798  0.36172782     0.02200
C229        C  0.10762007  0.40133497  0.39807397    -0.05700
C230        C  0.12718348  0.37346331  0.41400730    -0.02800
C231        C  0.15094178  0.35387313  0.39301333     0.02200
C232        C  0.15498743  0.41121553  0.31080631     0.36900
C233        C  0.12326516  0.36440376  0.45196178     0.36900
C234        C  0.17302811  0.32802871  0.41069432     0.35300
C235        C  0.09512097  0.43824907  0.34290237     0.35300
N236        N  0.19095065  0.30762648  0.42460657    -0.39500
N237        N  0.07923632  0.45936433  0.32735073    -0.39500
N238        N  0.12039435  0.35650405  0.48210013    -0.39000
N239        N  0.16657847  0.42569819  0.28598521    -0.39000
C240        C  0.35152932  0.35216728  0.13914820    -0.05700
C241        C  0.38669934  0.34265794  0.13732267    -0.02800
C242        C  0.40933443  0.36193755  0.11496650     0.02200
C243        C  0.39813300  0.39260580  0.09630322    -0.05700
C244        C  0.36424249  0.40378765  0.09975372    -0.02800
C245        C  0.34152440  0.38509927  0.12245601     0.02200
C246        C  0.40068806  0.31477923  0.16041984     0.36900
C247        C  0.35215252  0.43387216  0.07854053     0.36900
C248        C  0.30984921  0.40302071  0.13135289     0.35300
C249        C  0.44442442  0.35029966  0.11131825     0.35300
N250        N  0.28479692  0.41803286  0.13795684    -0.39500
N251        N  0.47228509  0.34083584  0.10802540    -0.39500
N252        N  0.34180503  0.45705507  0.06094322    -0.39000
N253        N  0.41203924  0.29281140  0.17897164    -0.39000
N254        N  0.45951438  0.45440814  0.56525646    -0.06400
N255        N  0.43561978  0.44611625  0.58895106    -0.58600
N256        N  0.03879038  0.43116402  0.54253279    -0.06100
N257        N  0.06204448  0.40665692  0.54965817    -0.60700
N258        N  0.03722922  0.45510068  0.56879371    -0.05700
N259        N  0.05926388  0.44714062  0.59451836    -0.58500
N260        N  0.46126238  0.42974313  0.53973370    -0.05400
N261        N  0.43879103  0.40409202  0.54561719    -0.61000
C262        C  0.42272555  0.41493405  0.57607873     0.95700
C263        C  0.07478725  0.41715122  0.58190866     0.95500
N264        N  0.04238730  0.45831529  0.93280675    -0.06600
N265        N  0.06653524  0.45230606  0.90882780    -0.59100
N266        N  0.46377296  0.43218518  0.95466274    -0.04700
N267        N  0.44061104  0.40776446  0.94692947    -0.60400
N268        N  0.46447273  0.45732246  0.92965431    -0.06600
N269        N  0.44189994  0.45023039  0.90414739    -0.59400
N270        N  0.04159598  0.43237460  0.95684739    -0.04400
N271        N  0.06502559  0.40800284  0.94927931    -0.60500
Mn272      Mn  0.00144087  0.43052883  0.49841012     1.18400
C273        C  0.08064460  0.42081941  0.91921294     0.97800
C274        C  0.42693608  0.41948928  0.91558013     0.98500
N275        N  0.03646605  0.04056162  0.57097544    -0.06700
N276        N  0.05841855  0.04780722  0.59703921    -0.63000
N277        N  0.46012451  0.06546976  0.54241572    -0.05500
N278        N  0.43723182  0.09044084  0.54959698    -0.63600
N279        N  0.45880854  0.03970293  0.56675938    -0.06200
N280        N  0.43480489  0.04649145  0.59081739    -0.63200
N281        N  0.03763450  0.06558273  0.54586343    -0.05100
N282        N  0.06051832  0.09011777  0.55410955    -0.63900
Mn283      Mn  0.49791299  0.99743868  0.56894342     1.10700
C284        C  0.07347111  0.07854857  0.58585879     0.99000
C285        C  0.42136369  0.07793293  0.57947441     0.99100
N286        N  0.46425597  0.04259186  0.93132680    -0.06200
N287        N  0.44192092  0.04989526  0.90575198    -0.61600
N288        N  0.04143458  0.06722810  0.96055226    -0.05500
N289        N  0.06574992  0.09117725  0.95593776    -0.58300
N290        N  0.04233533  0.04311953  0.93453587    -0.06800
N291        N  0.06728640  0.05045268  0.91172590    -0.61100
N292        N  0.46353536  0.06746735  0.95669213    -0.05800
N293        N  0.44082465  0.09238670  0.94873400    -0.58300
Mn294      Mn  0.00334812  0.50035888  0.93110307     1.20200
Mn295      Mn  0.50066840  0.06731753  0.00138873     1.10100
Cl296      Cl  0.00081801  0.99892503  0.49999161    -0.86300
C297        C  0.42728006  0.08077896  0.91716602     0.96100
C298        C  0.08210046  0.08045344  0.92545783     0.95900
C299        C  0.17535102  0.16971825  0.83877594     0.86200
C300        C  0.16836641  0.16290121  0.79782513    -0.54100
C301        C  0.18817579  0.18254049  0.77475260     0.09100
C302        C  0.21206542  0.20780593  0.79558532     0.20000
C303        C  0.21407904  0.16431964  0.84357705    -0.54800
C304        C  0.23374599  0.18428913  0.82078519     0.09200
C305        C  0.16937471  0.21104023  0.84203484    -0.54300
C306        C  0.18938676  0.23139775  0.81979265     0.09800
H307        H  0.14884641  0.14472479  0.78823152     0.14300
H308        H  0.22693697  0.22330246  0.77799965     0.00000
H309        H  0.22461474  0.14586701  0.86329331     0.14600
H310        H  0.14988132  0.22306390  0.85882383     0.14400
C311        C  0.17553907  0.33533802  0.83108629     0.86200
C312        C  0.16968440  0.29462919  0.83839752    -0.54100
C313        C  0.18943790  0.27214140  0.81787917     0.09100
C314        C  0.21231444  0.29333867  0.79168481     0.20000
C315        C  0.21422623  0.34121944  0.83547722    -0.54800
C316        C  0.23397065  0.31891645  0.81493511     0.09200
C317        C  0.16836589  0.33800116  0.78985531    -0.54300
C318        C  0.18849036  0.31682396  0.76877392     0.09800
H319        H  0.15115082  0.28477777  0.85769661     0.14300
H320        H  0.22717302  0.27627665  0.77542178     0.00000
H321        H  0.22468561  0.36117726  0.85374802     0.14600
H322        H  0.14759130  0.35320762  0.77839996     0.14400
C323        C  0.17026395  0.32861635  0.66523302     0.86200
C324        C  0.16692081  0.33631376  0.70647501    -0.54100
C325        C  0.18692854  0.31523668  0.72793710     0.09100
C326        C  0.20917995  0.28987761  0.70547080     0.20000
C327        C  0.20900443  0.33470590  0.65881834    -0.54800
C328        C  0.22968371  0.31350694  0.67949256     0.09200
C329        C  0.16475957  0.28763582  0.66105893    -0.54300
C330        C  0.18520805  0.26699044  0.68245155     0.09800
H331        H  0.15066125  0.35725238  0.71734280     0.14300
H332        H  0.22487634  0.27427189  0.72199981     0.00000
H333        H  0.21931251  0.35572714  0.64191938     0.14600
H334        H  0.14592951  0.27640914  0.64287878     0.14400
C335        C  0.16963612  0.16396978  0.67193524     0.86200
C336        C  0.16420991  0.20448664  0.66503189    -0.54100
C337        C  0.18485977  0.22646168  0.68457322     0.09100
C338        C  0.20879628  0.20509287  0.70930752     0.20000
C339        C  0.20828110  0.15721764  0.66556708    -0.54800
C340        C  0.22916112  0.17966397  0.68470098     0.09200
C341        C  0.16652819  0.15892877  0.71368178    -0.54300
C342        C  0.18660461  0.18130066  0.73368856     0.09800
H343        H  0.14554666  0.21448832  0.64595971     0.14300
H344        H  0.22463674  0.22172881  0.72467116     0.00000
H345        H  0.21816026  0.13565549  0.64885796     0.14600
H346        H  0.15069875  0.13858015  0.72609491     0.14400
C347        C  0.33181467  0.16797439  0.83215909     0.86200
C348        C  0.33663922  0.20918220  0.83752026    -0.54100
C349        C  0.31651346  0.23006880  0.81602359     0.09100
C350        C  0.29256091  0.20715538  0.79281310     0.20000
C351        C  0.29321386  0.16335558  0.84054822    -0.54800
C352        C  0.27224200  0.18361270  0.81916570     0.09200
C353        C  0.33546288  0.16133219  0.79102947    -0.54300
C354        C  0.31478926  0.18194461  0.77000289     0.09800
H355        H  0.35372524  0.22063383  0.85738307     0.14300
H356        H  0.27678971  0.22301709  0.77661388     0.00000
H357        H  0.28348388  0.14695704  0.86238786     0.14600
H358        H  0.35317008  0.14183236  0.77995385     0.14400
C359        C  0.32623834  0.16369109  0.66648635     0.86200
C360        C  0.33254667  0.15916003  0.70752183    -0.54100
C361        C  0.31333033  0.18088851  0.72911007     0.09100
C362        C  0.28945209  0.20482376  0.70689694     0.20000
C363        C  0.28723488  0.15859090  0.66139494    -0.54800
C364        C  0.26764312  0.17958643  0.68354480     0.09200
C365        C  0.33059676  0.20448156  0.65880121    -0.54300
C366        C  0.31177094  0.22648350  0.68062777     0.09800
H367        H  0.35100893  0.14027220  0.71811907     0.14300
H368        H  0.27463499  0.22168718  0.72338200     0.00000
H369        H  0.27582120  0.14243348  0.64039255     0.14600
H370        H  0.34705937  0.21471322  0.63765214     0.14400
C371        C  0.32687876  0.32898773  0.66205940     0.86200
C372        C  0.33142957  0.28776027  0.65689473    -0.54100
C373        C  0.31215224  0.26717296  0.67965027     0.09100
C374        C  0.28974526  0.29047300  0.70445530     0.20000
C375        C  0.28790645  0.33351066  0.65615693    -0.54800
C376        C  0.26814436  0.31406992  0.67934230     0.09200
C377        C  0.33280850  0.33600447  0.70284697    -0.54300
C378        C  0.31347748  0.31561857  0.72547438     0.09800
H379        H  0.34808976  0.27622455  0.63655360     0.14300
H380        H  0.27481933  0.27476620  0.72182340     0.00000
H381        H  0.27666898  0.34746862  0.63355236     0.14600
H382        H  0.35133934  0.35528942  0.71253315     0.14400
C383        C  0.33220056  0.33309063  0.82823875     0.86200
C384        C  0.29350685  0.34005313  0.83454714    -0.54100
C385        C  0.27250994  0.31814338  0.81481639     0.09100
C386        C  0.29284696  0.29251004  0.79042340     0.20000
C387        C  0.33737810  0.29244466  0.83473166    -0.54800
C388        C  0.31659487  0.27074698  0.81496068     0.09200
C389        C  0.33537729  0.33845697  0.78658448    -0.54300
C390        C  0.31517627  0.31637478  0.76639837     0.09800
H391        H  0.28377814  0.36127536  0.85181352     0.14300
H392        H  0.27708529  0.27580868  0.77506238     0.00000
H393        H  0.35616426  0.28216264  0.85350812     0.14600
H394        H  0.35108327  0.35899396  0.77434596     0.14400
C395        C  0.11024542  0.10122928  0.90713253    -0.05700
C396        C  0.12023216  0.13580413  0.91957746    -0.02800
C397        C  0.14339056  0.15684133  0.89928951     0.02200
C398        C  0.15490190  0.14507870  0.86474268    -0.05700
C399        C  0.15064470  0.10801419  0.85664059    -0.02800
C400        C  0.12798255  0.08658976  0.87704996     0.02200
C401        C  0.10795511  0.14984765  0.95390537     0.36900
C402        C  0.17145231  0.09087567  0.82900996     0.36900
C403        C  0.12469097  0.04887137  0.86784585     0.35300
C404        C  0.15822963  0.18824218  0.91640693     0.35300
N405        N  0.12265110  0.01873843  0.86045827    -0.39500
N406        N  0.17012173  0.21304170  0.93045525    -0.39500
N407        N  0.18822556  0.07707856  0.80726448    -0.39000
N408        N  0.09854584  0.16125394  0.98133853    -0.39000
C409        C  0.09903742  0.39513943  0.60291333    -0.05700
C410        C  0.08821710  0.37770181  0.63466479    -0.02800
C411        C  0.11044764  0.35435517  0.65319960     0.02200
C412        C  0.14487339  0.35018156  0.64166459    -0.05700
C413        C  0.15365207  0.36404928  0.60693144    -0.02800
C414        C  0.13148175  0.38773793  0.58874170     0.02200
C415        C  0.05361174  0.38268820  0.64752837     0.36900
C416        C  0.18290350  0.35073078  0.58711073     0.36900
C417        C  0.14220406  0.40485343  0.55532587     0.35300
C418        C  0.09669554  0.33275514  0.68247088     0.35300
N419        N  0.15079137  0.41878090  0.52886621    -0.39500
N420        N  0.08548280  0.31550044  0.70562335    -0.39500
N421        N  0.20595896  0.34018466  0.57071364    -0.39000
N422        N  0.02605006  0.38670383  0.65776147    -0.39000
C423        C  0.35098592  0.13960878  0.64465543    -0.05700
C424        C  0.34123583  0.10603758  0.62917400    -0.02800
C425        C  0.36365819  0.08741363  0.60597003     0.02200
C426        C  0.39718560  0.09928069  0.60128296    -0.05700
C427        C  0.40861054  0.12975795  0.62015455    -0.02800
C428        C  0.38602622  0.14938244  0.64230370     0.02200
C429        C  0.31058504  0.08746281  0.64023752     0.36900
C430        C  0.44398296  0.14055774  0.61735011     0.36900
C431        C  0.39982757  0.17842646  0.66411671     0.35900
C432        C  0.35182939  0.05640923  0.58592432     0.35300
N433        N  0.41100288  0.20152415  0.68140435    -0.39500
N434        N  0.34201556  0.03224968  0.56929333    -0.39500
N435        N  0.47213578  0.14921129  0.61505731    -0.39000
N436        N  0.28648127  0.07180366  0.64879806    -0.39000
C437        C  0.14446100  0.14172616  0.64888199    -0.05700
C438        C  0.15210929  0.13162333  0.61249190    -0.02800
C439        C  0.12945884  0.10977844  0.59261255     0.02200
C440        C  0.09796189  0.09972394  0.60761236    -0.05700
C441        C  0.08807794  0.11396351  0.64138294    -0.02800
C442        C  0.11042917  0.13628109  0.66100249     0.02200
C443        C  0.18091075  0.14696415  0.59346380     0.36900
C444        C  0.05384889  0.10794510  0.65481376     0.36900
C445        C  0.09662389  0.15686771  0.69109990     0.35300
C446        C  0.13828098  0.09819405  0.55620219     0.35300
N447        N  0.08544874  0.17351853  0.71481685    -0.39500
N448        N  0.14512642  0.08902219  0.52712438    -0.39500
N449        N  0.02658067  0.10350523  0.66568081    -0.39000
N450        N  0.20361405  0.15939279  0.57796793    -0.39000
C451        C  0.40288866  0.39776295  0.89366873    -0.05700
C452        C  0.41296049  0.38466080  0.85948108    -0.02800
C453        C  0.39110116  0.36217714  0.83935320     0.02200
C454        C  0.35734993  0.35518050  0.85162339    -0.05700
C455        C  0.34988084  0.36374184  0.88841475    -0.02800
C456        C  0.37195254  0.38591433  0.90873132     0.02200
C457        C  0.44709300  0.39180309  0.84628348     0.36900
C458        C  0.32187881  0.34647405  0.90710491     0.36900
C459        C  0.36311870  0.39592652  0.94559007     0.35300
C460        C  0.40535234  0.34289302  0.80864107     0.35300
N461        N  0.35618689  0.40379080  0.97503008    -0.39500
N462        N  0.41698159  0.32736668  0.78440260    -0.39500
N463        N  0.29985981  0.33229960  0.92218167    -0.39000
N464        N  0.47437302  0.39716529  0.83587886    -0.39000
C465        C  0.40333728  0.10202890  0.89487629    -0.05700
C466        C  0.41373114  0.13511153  0.88021812    -0.02800
C467        C  0.39158406  0.15484584  0.85778956     0.02200
C468        C  0.35708781  0.14397306  0.85332740    -0.05700
C469        C  0.34871161  0.10820505  0.86394344    -0.02800
C470        C  0.37153049  0.08778122  0.88514604     0.02200
C471        C  0.44806865  0.14793917  0.88651534     0.36900
C472        C  0.31850531  0.09049210  0.85033276     0.36900
C473        C  0.36250232  0.05171556  0.89657580     0.35300
C474        C  0.40582491  0.18395177  0.83648351     0.35300
N475        N  0.35549599  0.02287237  0.90552204    -0.39500
N476        N  0.41734952  0.20692232  0.81932958    -0.39500
N477        N  0.29459983  0.07591459  0.83954172    -0.39000
N478        N  0.47542540  0.15817486  0.89147836    -0.39000
C479        C  0.15480926  0.36097004  0.85553723    -0.05700
C480        C  0.14055606  0.39330573  0.84216559    -0.02800
C481        C  0.11488161  0.41114797  0.86172786     0.02200
C482        C  0.10762013  0.40133488  0.89807400    -0.05700
C483        C  0.12718361  0.37346324  0.91400736    -0.02800
C484        C  0.15094186  0.35387313  0.89301347     0.02200
C485        C  0.15498768  0.41121568  0.81080643     0.36900
C486        C  0.12326533  0.36440370  0.95196182     0.36900
C487        C  0.17302832  0.32802868  0.91069439     0.35300
C488        C  0.09512112  0.43824909  0.84290245     0.35300
N489        N  0.19095097  0.30762651  0.92460658    -0.39500
N490        N  0.07923653  0.45936445  0.82735085    -0.39500
N491        N  0.12039451  0.35650401  0.98210018    -0.39000
N492        N  0.16657868  0.42569823  0.78598526    -0.39000
C493        C  0.35153027  0.35216823  0.63914707    -0.05700
C494        C  0.38669946  0.34265798  0.63732236    -0.02800
C495        C  0.40933443  0.36193752  0.61496619     0.02200
C496        C  0.39813302  0.39260583  0.59630302    -0.05700
C497        C  0.36424247  0.40378761  0.59975345    -0.02800
C498        C  0.34152447  0.38509934  0.62245571     0.02200
C499        C  0.40068819  0.31477927  0.66041963     0.36900
C500        C  0.35215246  0.43387195  0.57854014     0.36900
C501        C  0.30984924  0.40302078  0.63135280     0.35300
C502        C  0.44442433  0.35029955  0.61131763     0.35300
N503        N  0.28479698  0.41803287  0.63795694    -0.39500
N504        N  0.47228498  0.34083579  0.60802439    -0.39500
N505        N  0.34180496  0.45705477  0.56094272    -0.39000
N506        N  0.41203942  0.29281153  0.67897147    -0.39000
N507        N  0.45951432  0.95440812  0.06525648    -0.06400
N508        N  0.43561971  0.94611624  0.08895108    -0.58600
N509        N  0.03879041  0.93116378  0.04253296    -0.06100
N510        N  0.06204478  0.90665692  0.04965821    -0.60700
N511        N  0.03722933  0.95510054  0.06879378    -0.05700
N512        N  0.05926429  0.94714081  0.09451822    -0.58500
N513        N  0.46126229  0.92974315  0.03973368    -0.05400
N514        N  0.43879088  0.90409206  0.04561715    -0.61000
C515        C  0.42272539  0.91493410  0.07607870     0.95700
C516        C  0.07478779  0.91715147  0.08190852     0.95500
N517        N  0.04238740  0.95831525  0.43280699    -0.06600
N518        N  0.06653548  0.95230616  0.40882814    -0.59100
N519        N  0.46377323  0.93218506  0.45466280    -0.04700
N520        N  0.44061135  0.90776426  0.44692963    -0.60400
N521        N  0.46447295  0.95732229  0.42965431    -0.06600
N522        N  0.44190017  0.95023006  0.40414742    -0.59400
N523        N  0.04159604  0.93237445  0.45684753    -0.04400
N524        N  0.06502568  0.90800273  0.44927943    -0.60500
Mn525      Mn  0.00144092  0.93052853  0.99841018     1.18400
C526        C  0.08064481  0.92081943  0.41921318     0.97800
C527        C  0.42693633  0.91948897  0.41558028     0.98500
N528        N  0.03646583  0.54056181  0.07097528    -0.06700
N529        N  0.05841825  0.54780738  0.09703913    -0.63000
N530        N  0.46012415  0.56546953  0.04241552    -0.05500
N531        N  0.43723139  0.59044054  0.04959674    -0.63600
N532        N  0.45880830  0.53970279  0.06675928    -0.06200
N533        N  0.43480474  0.54649138  0.09081739    -0.63200
N534        N  0.03763460  0.56558277  0.04586313    -0.05100
N535        N  0.06051866  0.59011761  0.05410919    -0.63900
Mn536      Mn  0.49791285  0.49743860  0.06894333     1.10700
C537        C  0.07347118  0.57854851  0.08585863     0.99000
C538        C  0.42136342  0.57793278  0.07947432     0.99100
N539        N  0.46425581  0.54259155  0.43132672    -0.06200
N540        N  0.44192069  0.54989488  0.40575197    -0.61600
N541        N  0.04143461  0.56722820  0.46055209    -0.05500
N542        N  0.06575009  0.59117726  0.45593779    -0.58300
N543        N  0.04233537  0.54311967  0.43453568    -0.06800
N544        N  0.06728654  0.55045275  0.41172585    -0.61100
N545        N  0.46353524  0.56746709  0.45669199    -0.05800
N546        N  0.44082453  0.59238643  0.44873390    -0.58300
Mn547      Mn  0.00334798  0.00035879  0.43110342     1.20200
Mn548      Mn  0.50066823  0.56731741  0.50138843     1.10100
Cl549      Cl  0.00081796  0.49892519  0.99999131    -0.86300
C550        C  0.42727989  0.58077860  0.41716602     0.96100
C551        C  0.08210068  0.58045342  0.42545792     0.95900
C552        C  0.17535393  0.66972098  0.33877253     0.86200
C553        C  0.16837036  0.66290520  0.29782274    -0.54100
C554        C  0.18818321  0.68254764  0.27475022     0.09100
C555        C  0.21209443  0.70782992  0.29555472     0.20000
C556        C  0.21408045  0.66432305  0.34357330    -0.54800
C557        C  0.23374755  0.68429456  0.32077894     0.09200
C558        C  0.16937880  0.71104211  0.34203010    -0.54300
C559        C  0.18939463  0.73139998  0.31978430     0.09800
H560        H  0.14884777  0.64472608  0.28823231     0.14300
H561        H  0.22696204  0.72329465  0.27798112     0.00000
H562        H  0.22461370  0.64586806  0.36329244     0.14600
H563        H  0.14988256  0.72306260  0.35882240     0.14400
C564        C  0.17554210  0.83533464  0.33108356     0.86200
C565        C  0.16968853  0.79462665  0.33839349    -0.54100
C566        C  0.18944560  0.77213844  0.31787160     0.09100
C567        C  0.21234245  0.79331211  0.29165823     0.20000
C568        C  0.21422784  0.84121559  0.33547408    -0.54800
C569        C  0.23397227  0.81891030  0.31492961     0.09200
C570        C  0.16836990  0.83799675  0.28985354    -0.54300
C571        C  0.18849783  0.81681623  0.26877226     0.09800
H572        H  0.15115218  0.78477872  0.35769547     0.14300
H573        H  0.22719826  0.77627671  0.27540791     0.00000
H574        H  0.22468472  0.86117616  0.35374728     0.14600
H575        H  0.14759275  0.85320627  0.27840143     0.14400
C576        C  0.17026744  0.82861282  0.16523695     0.86200
C577        C  0.16692598  0.83630833  0.20647807    -0.54100
C578        C  0.18693770  0.81522711  0.22794094     0.09100
C579        C  0.20920968  0.78984466  0.20549787     0.20000
C580        C  0.20900659  0.83470144  0.15882339    -0.54800
C581        C  0.22968665  0.81349926  0.17950018     0.09200
C582        C  0.16476363  0.78763432  0.16106331    -0.54300
C583        C  0.18521434  0.76698816  0.18245730     0.09800
H584        H  0.15066277  0.85725035  0.21734201     0.14300
H585        H  0.22488623  0.77424731  0.22198900     0.00000
H586        H  0.21931136  0.85572569  0.14192091     0.14600
H587        H  0.14593071  0.77641052  0.14288012     0.14400
C588        C  0.16963958  0.66397309  0.17193886     0.86200
C589        C  0.16421388  0.70448782  0.16503559    -0.54100
C590        C  0.18486554  0.72646342  0.18457809     0.09100
C591        C  0.20882410  0.70512821  0.20933172     0.20000
C592        C  0.20828349  0.65722188  0.16557220    -0.54800
C593        C  0.22916427  0.67967226  0.18470845     0.09200
C594        C  0.16653319  0.65893383  0.21368438    -0.54300
C595        C  0.18661323  0.68130995  0.23369144     0.09800
H596        H  0.14554798  0.71448654  0.14596071     0.14300
H597        H  0.22463676  0.72176444  0.22465884     0.00000
H598        H  0.21815922  0.63565614  0.14886023     0.14600
H599        H  0.15070020  0.63858168  0.22609391     0.14400
C600        C  0.33181155  0.66797766  0.33215572     0.86200
C601        C  0.33663530  0.70918390  0.33751615    -0.54100
C602        C  0.31650679  0.73007080  0.31601711     0.09100
C603        C  0.29253208  0.70718652  0.29278500     0.20000
C604        C  0.29321201  0.66335976  0.34054372    -0.54800
C605        C  0.27223934  0.68362000  0.31915870     0.09200
C606        C  0.33545845  0.66133684  0.29102740    -0.54300
C607        C  0.31478177  0.68195265  0.27000008     0.09800
H608        H  0.35372437  0.72063238  0.35738198     0.14300
H609        H  0.27678580  0.72303937  0.27661539     0.00000
H610        H  0.28348527  0.64695791  0.36238641     0.14600
H611        H  0.35316896  0.64183375  0.27995538     0.14400
C612        C  0.32623577  0.66369423  0.16648981     0.86200
C613        C  0.33254320  0.65916396  0.20752391    -0.54100
C614        C  0.31332385  0.68089518  0.22911225     0.09100
C615        C  0.28942550  0.70485057  0.20692677     0.20000
C616        C  0.28723350  0.65859475  0.16139895    -0.54800
C617        C  0.26764167  0.67959332  0.18355163     0.09200
C618        C  0.33059304  0.70448371  0.15880591    -0.54300
C619        C  0.31176363  0.72648611  0.18063615     0.09800
H620        H  0.35100802  0.64027325  0.21811810     0.14300
H621        H  0.27461755  0.72168692  0.22340310     0.00000
H622        H  0.27582250  0.64243435  0.14039384     0.14600
H623        H  0.34705847  0.71471189  0.13765380     0.14400
C624        C  0.32687612  0.82898402  0.16206296     0.86200
C625        C  0.33142551  0.78775766  0.15689967    -0.54100
C626        C  0.31214432  0.76717004  0.17965915     0.09100
C627        C  0.28971645  0.79044733  0.20448675     0.20000
C628        C  0.28790524  0.83350647  0.15616104    -0.54800
C629        C  0.26814289  0.81406323  0.17934918     0.09200
C630        C  0.33280499  0.83599978  0.20284915    -0.54300
C631        C  0.31347063  0.81561129  0.22547716     0.09800
H632        H  0.34808855  0.77622519  0.13655500     0.14300
H633        H  0.27479544  0.77476991  0.22183856     0.00000
H634        H  0.27667048  0.84746720  0.13355347     0.14600
H635        H  0.35133859  0.85528757  0.21253199     0.14400
C636        C  0.33219752  0.83308694  0.32823542     0.86200
C637        C  0.29350511  0.84004842  0.33454270    -0.54100
C638        C  0.27250727  0.81813554  0.31480912     0.09100
C639        C  0.29281874  0.79247809  0.29039520     0.20000
C640        C  0.33737408  0.79244254  0.33472741    -0.54800
C641        C  0.31658818  0.77074423  0.31495377     0.09200
C642        C  0.33537320  0.83845226  0.28658255    -0.54300
C643        C  0.31516909  0.81636689  0.26639613     0.09800
H644        H  0.28377969  0.86127396  0.35181223     0.14300
H645        H  0.27708467  0.77579299  0.27505272     0.00000
H646        H  0.35616332  0.78216401  0.35350690     0.14600
H647        H  0.35108251  0.85899255  0.27434736     0.14400
C648        C  0.11024568  0.60122918  0.40713269    -0.05700
C649        C  0.12023264  0.63580395  0.41957767    -0.02800
C650        C  0.14339104  0.65684117  0.39928949     0.02200
C651        C  0.15490312  0.64507984  0.36474118    -0.05700
C652        C  0.15064461  0.60801415  0.35664035    -0.02800
C653        C  0.12798246  0.58658970  0.37704988     0.02200
C654        C  0.10795564  0.64984761  0.45390560     0.36900
C655        C  0.17145190  0.59087553  0.32900961     0.36900
C656        C  0.12469047  0.54887135  0.36784556     0.35300
C657        C  0.15823011  0.68824206  0.41640675     0.35300
N658        N  0.12265015  0.51873846  0.36045790    -0.39500
N659        N  0.17012229  0.71304174  0.43045473    -0.39500
N660        N  0.18822498  0.57707836  0.30726400    -0.39000
N661        N  0.09854640  0.66125416  0.48133867    -0.39000
C662        C  0.09903791  0.89513970  0.10291329    -0.05700
C663        C  0.08821758  0.87770221  0.13466480    -0.02800
C664        C  0.11044804  0.85435529  0.15319965     0.02200
C665        C  0.14487523  0.85018016  0.14166620    -0.05700
C666        C  0.15365253  0.86404920  0.10693160    -0.02800
C667        C  0.13148224  0.88773809  0.08874175     0.02200
C668        C  0.05361238  0.88268921  0.14752873     0.36900
C669        C  0.18290390  0.85073088  0.08711083     0.36900
C670        C  0.14220474  0.90485386  0.05532608     0.35300
C671        C  0.09669562  0.83275546  0.18247083     0.35300
N672        N  0.15079218  0.91878167  0.02886664    -0.39500
N673        N  0.08548239  0.81550099  0.20562324    -0.39500
N674        N  0.20595940  0.84018498  0.07071362    -0.39000
N675        N  0.02605087  0.88670523  0.15776222    -0.39000
C676        C  0.35098478  0.63961003  0.14465697    -0.05700
C677        C  0.34123580  0.60603768  0.12917431    -0.02800
C678        C  0.36365803  0.58741376  0.10596999     0.02200
C679        C  0.39718548  0.59928063  0.10128294    -0.05700
C680        C  0.40861059  0.62975771  0.12015471    -0.02800
C681        C  0.38602633  0.64938229  0.14230404     0.02200
C682        C  0.31058524  0.58746278  0.14023806     0.36900
C683        C  0.44398306  0.64055740  0.11735024     0.36900
C684        C  0.39982790  0.67842621  0.16411696     0.35900
C685        C  0.35182907  0.55640939  0.08592435     0.35300
N686        N  0.41100360  0.70152381  0.18140449    -0.39500
N687        N  0.34201507  0.53224977  0.06929357    -0.39500
N688        N  0.47213586  0.64921104  0.11505751    -0.39000
N689        N  0.28648154  0.57180360  0.14879882    -0.39000
C690        C  0.14446264  0.64172724  0.14888381    -0.05700
C691        C  0.15210962  0.63162292  0.11249246    -0.02800
C692        C  0.12945911  0.60977807  0.09261286     0.02200
C693        C  0.09796200  0.59972375  0.10761240    -0.05700
C694        C  0.08807808  0.61396315  0.14138310    -0.02800
C695        C  0.11042935  0.63628078  0.16100286     0.02200
C696        C  0.18091126  0.64696336  0.09346455     0.36900
C697        C  0.05384908  0.60794450  0.15481401     0.36900
C698        C  0.09662401  0.65686697  0.19110046     0.35300
C699        C  0.13828145  0.59819369  0.05620251     0.35300
N700        N  0.08544881  0.67351741  0.21481772    -0.39500
N701        N  0.14512717  0.58902197  0.02712472    -0.39500
N702        N  0.02658094  0.60350447  0.16568125    -0.39000
N703        N  0.20361485  0.65939175  0.07796891    -0.39000
C704        C  0.40288893  0.89776254  0.39366894    -0.05700
C705        C  0.41296068  0.88466055  0.35948124    -0.02800
C706        C  0.39110129  0.86217688  0.33935322     0.02200
C707        C  0.35734864  0.85517893  0.35162196    -0.05700
C708        C  0.34988103  0.86374137  0.38841473    -0.02800
C709        C  0.37195283  0.88591385  0.40873148     0.02200
C710        C  0.44709308  0.89180319  0.34628349     0.36900
C711        C  0.32187906  0.84647352  0.40710481     0.36900
C712        C  0.36311893  0.89592595  0.44559022     0.35300
C713        C  0.40535256  0.84289275  0.30864124     0.35300
N714        N  0.35618695  0.90379005  0.47503024    -0.39500
N715        N  0.41698185  0.82736623  0.28440289    -0.39500
N716        N  0.29985997  0.83229889  0.42218132    -0.39000
N717        N  0.47437296  0.89716583  0.33587872    -0.39000
C718        C  0.40333723  0.60202856  0.39487632    -0.05700
C719        C  0.41373128  0.63511101  0.38021796    -0.02800
C720        C  0.39158412  0.65484554  0.35778949     0.02200
C721        C  0.35708639  0.64397436  0.35332616    -0.05700
C722        C  0.34871153  0.60820498  0.36394347    -0.02800
C723        C  0.37153033  0.58778107  0.38514633     0.02200
C724        C  0.44806900  0.64793835  0.38651482     0.36900
C725        C  0.31850552  0.59049190  0.35033256     0.36900
C726        C  0.36250194  0.55171556  0.39657658     0.35300
C727        C  0.40582503  0.68395147  0.33648361     0.35300
N728        N  0.35549551  0.52287251  0.40552327    -0.39500
N729        N  0.41734962  0.70692212  0.31932978    -0.39500
N730        N  0.29460020  0.57591415  0.33954137    -0.39000
N731        N  0.47542589  0.65817379  0.39147747    -0.39000
C732        C  0.15481056  0.86096849  0.35553609    -0.05700
C733        C  0.14055644  0.89330555  0.34216573    -0.02800
C734        C  0.11488197  0.91114800  0.36172810     0.02200
C735        C  0.10762027  0.90133480  0.39807416    -0.05700
C736        C  0.12718353  0.87346297  0.41400742    -0.02800
C737        C  0.15094193  0.85387286  0.39301351     0.02200
C738        C  0.15498810  0.91121537  0.31080659     0.36900
C739        C  0.12326539  0.86440359  0.45196195     0.36900
C740        C  0.17302856  0.82802877  0.41069457     0.35300
C741        C  0.09512173  0.93824936  0.34290273     0.35300
N742        N  0.19095154  0.80762695  0.42460684    -0.39500
N743        N  0.07923732  0.95936480  0.32735104    -0.39500
N744        N  0.12039497  0.85650420  0.48210044    -0.39000
N745        N  0.16657935  0.92569766  0.28598536    -0.39000
C746        C  0.35152912  0.85216640  0.13914839    -0.05700
C747        C  0.38669960  0.84265750  0.13732221    -0.02800
C748        C  0.40933463  0.86193757  0.11496634     0.02200
C749        C  0.39813303  0.89260577  0.09630312    -0.05700
C750        C  0.36424247  0.90378740  0.09975380    -0.02800
C751        C  0.34152457  0.88509894  0.12245619     0.02200
C752        C  0.40068842  0.81477846  0.16041892     0.36900
C753        C  0.35215221  0.93387202  0.07854105     0.36900
C754        C  0.30984943  0.90302030  0.13135353     0.35300
C755        C  0.44442488  0.85030049  0.11131850     0.35300
N756        N  0.28479708  0.91803215  0.13795790    -0.39500
N757        N  0.47228584  0.84083758  0.10802593    -0.39500
N758        N  0.34180418  0.95705513  0.06094441    -0.39000
N759        N  0.41203969  0.79281032  0.17897031    -0.39000
N760        N  0.45951440  0.95440815  0.56525651    -0.06400
N761        N  0.43561975  0.94611630  0.58895108    -0.58600
N762        N  0.03879032  0.93116359  0.54253311    -0.06100
N763        N  0.06204458  0.90665662  0.54965838    -0.60700
N764        N  0.03722934  0.95510040  0.56879390    -0.05700
N765        N  0.05926432  0.94714061  0.59451833    -0.58500
N766        N  0.46126242  0.92974313  0.53973376    -0.05400
N767        N  0.43879105  0.90409202  0.54561725    -0.61000
C768        C  0.42272551  0.91493411  0.57607874     0.95700
C769        C  0.07478770  0.91715121  0.58190862     0.95500
N770        N  0.04238745  0.95831534  0.93280685    -0.06600
N771        N  0.06653547  0.95230621  0.90882795    -0.59100
N772        N  0.46377327  0.93218498  0.95466278    -0.04700
N773        N  0.44061146  0.90776410  0.94692962    -0.60400
N774        N  0.46447293  0.95732223  0.92965430    -0.06600
N775        N  0.44190013  0.95022996  0.90414744    -0.59400
N776        N  0.04159611  0.93237456  0.95684741    -0.04400
N777        N  0.06502572  0.90800283  0.94927930    -0.60500
Mn778      Mn  0.00144082  0.93052843  0.49841034     1.18400
C779        C  0.08064481  0.92081950  0.91921302     0.97800
C780        C  0.42693638  0.91948880  0.91558030     0.98500
N781        N  0.03646589  0.54056189  0.57097525    -0.06700
N782        N  0.05841832  0.54780744  0.59703909    -0.63000
N783        N  0.46012418  0.56546955  0.54241538    -0.05500
N784        N  0.43723140  0.59044056  0.54959656    -0.63600
N785        N  0.45880832  0.53970281  0.56675916    -0.06200
N786        N  0.43480471  0.54649137  0.59081721    -0.63200
N787        N  0.03763469  0.56558283  0.54586309    -0.05100
N788        N  0.06051875  0.59011764  0.55410913    -0.63900
Mn789      Mn  0.49791296  0.49743872  0.56894330     1.10700
C790        C  0.07347127  0.57854854  0.58585855     0.99000
C791        C  0.42136341  0.57793276  0.57947412     0.99100
N792        N  0.46425596  0.54259169  0.93132674    -0.06200
N793        N  0.44192091  0.54989501  0.90575191    -0.61600
N794        N  0.04143453  0.56722815  0.96055211    -0.05500
N795        N  0.06574987  0.59117735  0.95593773    -0.58300
N796        N  0.04233542  0.54311952  0.93453578    -0.06800
N797        N  0.06728663  0.55045265  0.91172600    -0.61100
N798        N  0.46353522  0.56746714  0.95669209    -0.05800
N799        N  0.44082444  0.59238642  0.94873398    -0.58300
Mn800      Mn  0.00334809  0.00035891  0.93110331     1.20200
Mn801      Mn  0.50066821  0.56731742  0.00138857     1.10100
Cl802      Cl  0.00081807  0.49892531  0.49999129    -0.86300
C803        C  0.42727996  0.58077863  0.91716600     0.96100
C804        C  0.08210060  0.58045346  0.92545795     0.95900
C805        C  0.17535389  0.66972088  0.83877276     0.86200
C806        C  0.16837029  0.66290523  0.79782277    -0.54100
C807        C  0.18818298  0.68254749  0.77475039     0.09100
C808        C  0.21209408  0.70782951  0.79555510     0.20000
C809        C  0.21408057  0.66432297  0.84357325    -0.54800
C810        C  0.23374745  0.68429432  0.82077904     0.09200
C811        C  0.16937896  0.71104220  0.84203024    -0.54300
C812        C  0.18939456  0.73139984  0.81978450     0.09800
H813        H  0.14884769  0.64472608  0.78823250     0.14300
H814        H  0.22696125  0.72329372  0.77798202     0.00000
H815        H  0.22461377  0.64586789  0.86329232     0.14600
H816        H  0.14988283  0.72306272  0.85882264     0.14400
C817        C  0.17554202  0.83533477  0.83108357     0.86200
C818        C  0.16968858  0.79462660  0.83839340    -0.54100
C819        C  0.18944553  0.77213859  0.81787170     0.09100
C820        C  0.21234219  0.79331249  0.79165850     0.20000
C821        C  0.21422793  0.84121560  0.83547398    -0.54800
C822        C  0.23397219  0.81891048  0.81492964     0.09200
C823        C  0.16836991  0.83799672  0.78985339    -0.54300
C824        C  0.18849776  0.81681640  0.76877233     0.09800
H825        H  0.15115225  0.78477872  0.85769541     0.14300
H826        H  0.22719763  0.77627765  0.77540865     0.00000
H827        H  0.22468473  0.86117617  0.85374720     0.14600
H828        H  0.14759272  0.85320621  0.77840135     0.14400
C829        C  0.17026734  0.82861298  0.66523681     0.86200
C830        C  0.16692605  0.83630842  0.70647810    -0.54100
C831        C  0.18693758  0.81522733  0.72794072     0.09100
C832        C  0.20920928  0.78984508  0.70549739     0.20000
C833        C  0.20900666  0.83470151  0.65882339    -0.54800
C834        C  0.22968649  0.81349948  0.67949995     0.09200
C835        C  0.16476364  0.78763426  0.66106329    -0.54300
C836        C  0.18521416  0.76698834  0.68245713     0.09800
H837        H  0.15066294  0.85725059  0.71734191     0.14300
H838        H  0.22488531  0.77424819  0.72198782     0.00000
H839        H  0.21931131  0.85572590  0.64192102     0.14600
H840        H  0.14593078  0.77641052  0.64288000     0.14400
C841        C  0.16963949  0.66397298  0.67193860     0.86200
C842        C  0.16421390  0.70448791  0.66503553    -0.54100
C843        C  0.18486535  0.72646325  0.68457792     0.09100
C844        C  0.20882371  0.70512776  0.70933131     0.20000
C845        C  0.20828361  0.65722197  0.66557201    -0.54800
C846        C  0.22916416  0.67967211  0.68470819     0.09200
C847        C  0.16653319  0.65893378  0.71368434    -0.54300
C848        C  0.18661305  0.68130970  0.73369125     0.09800
H849        H  0.14554802  0.71448657  0.64596061     0.14300
H850        H  0.22463585  0.72176350  0.72465782     0.00000
H851        H  0.21815929  0.63565637  0.64885982     0.14600
H852        H  0.15070013  0.63858162  0.72609375     0.14400
C853        C  0.33181175  0.66797745  0.83215570     0.86200
C854        C  0.33663537  0.70918389  0.83751595    -0.54100
C855        C  0.31650702  0.73007056  0.81601711     0.09100
C856        C  0.29253251  0.70718601  0.79278526     0.20000
C857        C  0.29321204  0.66335972  0.84054367    -0.54800
C858        C  0.27223955  0.68361972  0.81915877     0.09200
C859        C  0.33545845  0.66133665  0.79102716    -0.54300
C860        C  0.31478197  0.68195237  0.77000007     0.09800
H861        H  0.35372439  0.72063232  0.85738184     0.14300
H862        H  0.27678674  0.72303833  0.77661626     0.00000
H863        H  0.28348543  0.64695797  0.86238650     0.14600
H864        H  0.35316894  0.64183350  0.77995520     0.14400
C865        C  0.32623599  0.66369427  0.66648942     0.86200
C866        C  0.33254342  0.65916418  0.70752370    -0.54100
C867        C  0.31332417  0.68089514  0.72911188     0.09100
C868        C  0.28942595  0.70485029  0.70692621     0.20000
C869        C  0.28723355  0.65859485  0.66139878    -0.54800
C870        C  0.26764189  0.67959324  0.68355132     0.09200
C871        C  0.33059305  0.70448393  0.65880555    -0.54300
C872        C  0.31176381  0.72648608  0.68063574     0.09800
H873        H  0.35100825  0.64027345  0.71811780     0.14300
H874        H  0.27461845  0.72168613  0.72340208     0.00000
H875        H  0.27582264  0.64243440  0.64039368     0.14600
H876        H  0.34705838  0.71471207  0.63765334     0.14400
C877        C  0.32687619  0.82898425  0.66206270     0.86200
C878        C  0.33142549  0.78775771  0.65689948    -0.54100
C879        C  0.31214450  0.76717029  0.67965883     0.09100
C880        C  0.28971685  0.79044780  0.70448624     0.20000
C881        C  0.28790513  0.83350657  0.65616096    -0.54800
C882        C  0.26814302  0.81406346  0.67934896     0.09200
C883        C  0.33280497  0.83599992  0.70284908    -0.54300
C884        C  0.31347081  0.81561153  0.72547690     0.09800
H885        H  0.34808848  0.77622529  0.63655473     0.14300
H886        H  0.27479626  0.77477097  0.72183756     0.00000
H887        H  0.27667043  0.84746736  0.63355342     0.14600
H888        H  0.35133851  0.85528784  0.71253178     0.14400
C889        C  0.33219771  0.83308703  0.82823549     0.86200
C890        C  0.29350511  0.84004842  0.83454261    -0.54100
C891        C  0.27250748  0.81813573  0.81480919     0.09100
C892        C  0.29281922  0.79247850  0.79039550     0.20000
C893        C  0.33737411  0.79244241  0.83472738    -0.54800
C894        C  0.31658838  0.77074434  0.81495385     0.09200
C895        C  0.33537329  0.83845223  0.78658242    -0.54300
C896        C  0.31516935  0.81636709  0.76639620     0.09800
H897        H  0.28377976  0.86127398  0.85181215     0.14300
H898        H  0.27708575  0.77579388  0.77505358     0.00000
H899        H  0.35616336  0.78216398  0.85350692     0.14600
H900        H  0.35108263  0.85899251  0.77434731     0.14400
C901        C  0.11024565  0.60122922  0.90713278    -0.05700
C902        C  0.12023271  0.63580392  0.91957785    -0.02800
C903        C  0.14339111  0.65684115  0.89928967     0.02200
C904        C  0.15490322  0.64507986  0.86474132    -0.05700
C905        C  0.15064467  0.60801417  0.85664048    -0.02800
C906        C  0.12798246  0.58658975  0.87704997     0.02200
C907        C  0.10795578  0.64984753  0.95390583     0.36900
C908        C  0.17145198  0.59087552  0.82900976     0.36900
C909        C  0.12469053  0.54887139  0.86784565     0.35300
C910        C  0.15823003  0.68824211  0.91640689     0.35300
N911        N  0.12265031  0.51873851  0.86045794    -0.39500
N912        N  0.17012193  0.71304188  0.93045499    -0.39500
N913        N  0.18822501  0.57707825  0.80726418    -0.39000
N914        N  0.09854659  0.66125408  0.98133892    -0.39000
C915        C  0.09903790  0.89513950  0.60291327    -0.05700
C916        C  0.08821763  0.87770212  0.63466486    -0.02800
C917        C  0.11044810  0.85435528  0.65319973     0.02200
C918        C  0.14487527  0.85018010  0.64166620    -0.05700
C919        C  0.15365255  0.86404911  0.60693153    -0.02800
C920        C  0.13148220  0.88773789  0.58874164     0.02200
C921        C  0.05361247  0.88268922  0.64752885     0.36900
C922        C  0.18290400  0.85073086  0.58711084     0.36900
C923        C  0.14220462  0.90485356  0.55532587     0.35300
C924        C  0.09669573  0.83275562  0.68247109     0.35300
N925        N  0.15079202  0.91878127  0.52886635    -0.39500
N926        N  0.08548255  0.81550124  0.70562360    -0.39500
N927        N  0.20595955  0.84018495  0.57071370    -0.39000
N928        N  0.02605098  0.88670543  0.65776231    -0.39000
C929        C  0.35098484  0.63961014  0.64465670    -0.05700
C930        C  0.34123590  0.60603767  0.62917425    -0.02800
C931        C  0.36365814  0.58741365  0.60597003     0.02200
C932        C  0.39718554  0.59928061  0.60128279    -0.05700
C933        C  0.40861069  0.62975771  0.62015450    -0.02800
C934        C  0.38602642  0.64938236  0.64230374     0.02200
C935        C  0.31058538  0.58746279  0.64023816     0.36900
C936        C  0.44398318  0.64055736  0.61734996     0.36900
C937        C  0.39982798  0.67842634  0.66411655     0.35900
C938        C  0.35182914  0.55640918  0.58592452     0.35300
N939        N  0.41100371  0.70152400  0.68140400    -0.39500
N940        N  0.34201497  0.53224959  0.56929383    -0.39500
N941        N  0.47213598  0.64921098  0.61505707    -0.39000
N942        N  0.28648175  0.57180360  0.64879912    -0.39000
C943        C  0.14446271  0.64172730  0.64888363    -0.05700
C944        C  0.15210958  0.63162319  0.61249218    -0.02800
C945        C  0.12945909  0.60977829  0.59261261     0.02200
C946        C  0.09796206  0.59972378  0.60761226    -0.05700
C947        C  0.08807818  0.61396302  0.64138300    -0.02800
C948        C  0.11042944  0.63628065  0.66100273     0.02200
C949        C  0.18091114  0.64696385  0.59346424     0.36900
C950        C  0.05384922  0.60794424  0.65481401     0.36900
C951        C  0.09662402  0.65686690  0.69110023     0.35300
C952        C  0.13828139  0.59819393  0.55620228     0.35300
N953        N  0.08544867  0.67351743  0.71481733    -0.39500
N954        N  0.14512707  0.58902220  0.52712449    -0.39500
N955        N  0.02658112  0.60350414  0.66568132    -0.39000
N956        N  0.20361467  0.65939247  0.57796869    -0.39000
C957        C  0.40288899  0.89776235  0.89366898    -0.05700
C958        C  0.41296071  0.88466050  0.85948120    -0.02800
C959        C  0.39110134  0.86217684  0.83935320     0.02200
C960        C  0.35734868  0.85517885  0.85162192    -0.05700
C961        C  0.34988111  0.86374114  0.88841476    -0.02800
C962        C  0.37195294  0.88591352  0.90873156     0.02200
C963        C  0.44709307  0.89180327  0.84628339     0.36900
C964        C  0.32187910  0.84647329  0.90710474     0.36900
C965        C  0.36311909  0.89592543  0.94559038     0.35300
C966        C  0.40535263  0.84289269  0.80864127     0.35300
N967        N  0.35618711  0.90378945  0.97503041    -0.39500
N968        N  0.41698201  0.82736619  0.78440296    -0.39500
N969        N  0.29985989  0.83229878  0.92218117    -0.39000
N970        N  0.47437292  0.89716600  0.83587856    -0.39000
C971        C  0.40333730  0.60202856  0.89487627    -0.05700
C972        C  0.41373122  0.63511123  0.88021831    -0.02800
C973        C  0.39158412  0.65484570  0.85778974     0.02200
C974        C  0.35708645  0.64397433  0.85332605    -0.05700
C975        C  0.34871168  0.60820486  0.86394320    -0.02800
C976        C  0.37153053  0.58778091  0.88514595     0.02200
C977        C  0.44806882  0.64793879  0.88651562     0.36900
C978        C  0.31850556  0.59049189  0.85033236     0.36900
C979        C  0.36250236  0.55171519  0.89657575     0.35300
C980        C  0.40582513  0.68395169  0.83648403     0.35300
N981        N  0.35549615  0.52287195  0.90552201    -0.39500
N982        N  0.41734995  0.70692234  0.81933037    -0.39500
N983        N  0.29460012  0.57591435  0.83954118    -0.39000
N984        N  0.47542562  0.65817434  0.89147864    -0.39000
C985        C  0.15481056  0.86096851  0.85553594    -0.05700
C986        C  0.14055641  0.89330558  0.84216555    -0.02800
C987        C  0.11488196  0.91114807  0.86172794     0.02200
C988        C  0.10762033  0.90133496  0.89807405    -0.05700
C989        C  0.12718364  0.87346317  0.91400734    -0.02800
C990        C  0.15094193  0.85387295  0.89301339     0.02200
C991        C  0.15498802  0.91121537  0.81080635     0.36900
C992        C  0.12326554  0.86440384  0.95196192     0.36900
C993        C  0.17302833  0.82802864  0.91069438     0.35300
C994        C  0.09512172  0.93824943  0.84290254     0.35300
N995        N  0.19095108  0.80762653  0.92460656    -0.39500
N996        N  0.07923744  0.95936497  0.82735084    -0.39500
N997        N  0.12039514  0.85650447  0.98210041    -0.39000
N998        N  0.16657926  0.92569764  0.78598509    -0.39000
C999        C  0.35152909  0.85216646  0.63914826    -0.05700
C1000       C  0.38669959  0.84265763  0.63732225    -0.02800
C1001       C  0.40933467  0.86193764  0.61496641     0.02200
C1002       C  0.39813312  0.89260583  0.59630312    -0.05700
C1003       C  0.36424253  0.90378740  0.59975356    -0.02800
C1004       C  0.34152456  0.88509893  0.62245585     0.02200
C1005       C  0.40068834  0.81477866  0.66041908     0.36900
C1006       C  0.35215228  0.93387190  0.57854059     0.36900
C1007       C  0.30984945  0.90302035  0.63135312     0.35300
C1008       C  0.44442486  0.85030039  0.61131850     0.35300
N1009       N  0.28479717  0.91803236  0.63795747    -0.39500
N1010       N  0.47228576  0.84083729  0.60802576    -0.39500
N1011       N  0.34180416  0.95705481  0.56094373    -0.39000
N1012       N  0.41203956  0.79281058  0.67897058    -0.39000
N1013       N  0.95951422  0.45440810  0.06525643    -0.06400
N1014       N  0.93561965  0.44611622  0.08895106    -0.58600
N1015       N  0.53879023  0.43116375  0.04253289    -0.06100
N1016       N  0.56204432  0.40665665  0.04965824    -0.60700
N1017       N  0.53722916  0.45510048  0.06879377    -0.05700
N1018       N  0.55926390  0.44714048  0.09451835    -0.58500
N1019       N  0.96126215  0.42974316  0.03973361    -0.05400
N1020       N  0.93879078  0.40409204  0.04561713    -0.61000
C1021       C  0.92272535  0.41493406  0.07607874     0.95700
C1022       C  0.57478718  0.41715101  0.08190866     0.95500
N1023       N  0.54238713  0.45831522  0.43280669    -0.06600
N1024       N  0.56653513  0.45230616  0.40882776    -0.59100
N1025       N  0.96377316  0.43218544  0.45466262    -0.04700
N1026       N  0.94061125  0.40776469  0.44692944    -0.60400
N1027       N  0.96447307  0.45732256  0.42965400    -0.06600
N1028       N  0.94190044  0.45023027  0.40414699    -0.59400
N1029       N  0.54159584  0.43237442  0.45684722    -0.04400
N1030       N  0.56502541  0.40800268  0.44927900    -0.60500
Mn1031     Mn  0.50144071  0.43052854  0.99841020     1.18400
C1032       C  0.58064447  0.42081944  0.41921275     0.97800
C1033       C  0.92693649  0.41948927  0.41557989     0.98500
N1034       N  0.53646593  0.04056184  0.07097556    -0.06700
N1035       N  0.55841825  0.04780750  0.09703948    -0.63000
N1036       N  0.96012426  0.06546963  0.04241583    -0.05500
N1037       N  0.93723160  0.09044070  0.04959737    -0.63600
N1038       N  0.95880847  0.03970278  0.06675950    -0.06200
N1039       N  0.93480506  0.04649131  0.09081779    -0.63200
N1040       N  0.53763489  0.06558265  0.04586327    -0.05100
N1041       N  0.56051894  0.09011747  0.05410927    -0.63900
Mn1042     Mn  0.99791303  0.99743851  0.06894334     1.10700
C1043       C  0.57347128  0.07854850  0.08585881     0.99000
C1044       C  0.92136376  0.07793281  0.07947498     0.99100
N1045       N  0.96425595  0.04259163  0.43132681    -0.06200
N1046       N  0.94192087  0.04989484  0.40575198    -0.61600
N1047       N  0.54143453  0.06722817  0.46055222    -0.05500
N1048       N  0.56574980  0.09117741  0.45593770    -0.58300
N1049       N  0.54233524  0.04311964  0.43453581    -0.06800
N1050       N  0.56728626  0.05045287  0.41172580    -0.61100
N1051       N  0.96353519  0.06746717  0.45669210    -0.05800
N1052       N  0.94082440  0.09238641  0.44873386    -0.58300
Mn1053     Mn  0.50334781  0.50035875  0.43110322     1.20200
Mn1054     Mn  0.00066810  0.06731746  0.50138881     1.10100
Cl1055     Cl  0.50081800  0.99892522  0.99999152    -0.86300
C1056       C  0.92727987  0.08077848  0.41716593     0.96100
C1057       C  0.58210029  0.08045367  0.42545773     0.95900
C1058       C  0.67535360  0.16972126  0.33877270     0.86200
C1059       C  0.66837008  0.16290551  0.29782271    -0.54100
C1060       C  0.68818283  0.18254766  0.27475033     0.09100
C1061       C  0.71209389  0.20782975  0.29555502     0.20000
C1062       C  0.71408027  0.16432331  0.34357328    -0.54800
C1063       C  0.73374720  0.18429458  0.32077907     0.09200
C1064       C  0.66937871  0.21104261  0.34203009    -0.54300
C1065       C  0.68939430  0.23140016  0.31978430     0.09800
H1066       H  0.64884751  0.14472632  0.28823241     0.14300
H1067       H  0.72696107  0.22329391  0.27798193     0.00000
H1068       H  0.72461343  0.14586822  0.36329236     0.14600
H1069       H  0.64988260  0.22306318  0.35882249     0.14400
C1070       C  0.67554184  0.33533516  0.33108342     0.86200
C1071       C  0.66968832  0.29462697  0.33839320    -0.54100
C1072       C  0.68944526  0.27213895  0.31787149     0.09100
C1073       C  0.71234195  0.29331285  0.29165839     0.20000
C1074       C  0.71422775  0.34121593  0.33547387    -0.54800
C1075       C  0.73397197  0.31891077  0.31492961     0.09200
C1076       C  0.66836977  0.33799717  0.28985322    -0.54300
C1077       C  0.68849756  0.31681679  0.26877219     0.09800
H1078       H  0.65115196  0.28477912  0.35769520     0.14300
H1079       H  0.72719735  0.27627800  0.27540862     0.00000
H1080       H  0.72468461  0.36117642  0.35374714     0.14600
H1081       H  0.64759265  0.35320674  0.27840114     0.14400
C1082       C  0.67026731  0.32861315  0.16523661     0.86200
C1083       C  0.66692601  0.33630877  0.20647790    -0.54100
C1084       C  0.68693743  0.31522766  0.22794057     0.09100
C1085       C  0.70920904  0.28984523  0.20549733     0.20000
C1086       C  0.70900668  0.33470145  0.15882319    -0.54800
C1087       C  0.72968639  0.31349943  0.17949986     0.09200
C1088       C  0.66476349  0.28763441  0.16106323    -0.54300
C1089       C  0.68521388  0.26698847  0.18245713     0.09800
H1090       H  0.65066284  0.35725094  0.21734164     0.14300
H1091       H  0.72488496  0.27424834  0.22198779     0.00000
H1092       H  0.71931145  0.35572576  0.14192081     0.14600
H1093       H  0.64593066  0.27641068  0.14287990     0.14400
C1094       C  0.66963930  0.16397306  0.17193856     0.86200
C1095       C  0.66421358  0.20448802  0.16503558    -0.54100
C1096       C  0.68486505  0.22646335  0.18457793     0.09100
C1097       C  0.70882346  0.20512783  0.20933119     0.20000
C1098       C  0.70828341  0.15722207  0.16557188    -0.54800
C1099       C  0.72916394  0.17967219  0.18470809     0.09200
C1100       C  0.66653311  0.15893377  0.21368430    -0.54300
C1101       C  0.68661292  0.18130974  0.23369118     0.09800
H1102       H  0.64554762  0.21448669  0.14596076     0.14300
H1103       H  0.72463555  0.22176356  0.22465762     0.00000
H1104       H  0.71815908  0.13565642  0.14885975     0.14600
H1105       H  0.65070011  0.13858155  0.22609371     0.14400
C1106       C  0.83181150  0.16797737  0.33215580     0.86200
C1107       C  0.83663532  0.20918381  0.33751594    -0.54100
C1108       C  0.81650688  0.23007052  0.31601724     0.09100
C1109       C  0.79253235  0.20718600  0.29278543     0.20000
C1110       C  0.79321174  0.16335985  0.34054387    -0.54800
C1111       C  0.77223931  0.18361984  0.31915891     0.09200
C1112       C  0.83545808  0.16133649  0.29102728    -0.54300
C1113       C  0.81478170  0.18195228  0.27000022     0.09800
H1114       H  0.85372457  0.22063220  0.35738162     0.14300
H1115       H  0.77678666  0.22303833  0.27661647     0.00000
H1116       H  0.78348507  0.14695833  0.36238683     0.14600
H1117       H  0.85316846  0.14183321  0.27995536     0.14400
C1118       C  0.82623578  0.16369429  0.16648962     0.86200
C1119       C  0.83254324  0.15916421  0.20752389    -0.54100
C1120       C  0.81332391  0.18089508  0.22911205     0.09100
C1121       C  0.78942570  0.20485020  0.20692636     0.20000
C1122       C  0.78723337  0.15859475  0.16139896    -0.54800
C1123       C  0.76764167  0.17959316  0.18355142     0.09200
C1124       C  0.83059274  0.20448398  0.15880574    -0.54300
C1125       C  0.81176356  0.22648608  0.18063599     0.09800
H1126       H  0.85100824  0.14027363  0.21811796     0.14300
H1127       H  0.77461819  0.22168595  0.22340223     0.00000
H1128       H  0.77582255  0.14243417  0.14039389     0.14600
H1129       H  0.84705804  0.21471217  0.13765353     0.14400
C1130       C  0.82687618  0.32898437  0.16206320     0.86200
C1131       C  0.83142562  0.28775779  0.15690012    -0.54100
C1132       C  0.81214443  0.26717033  0.17965924     0.09100
C1133       C  0.78971667  0.29044783  0.20448649     0.20000
C1134       C  0.78790513  0.33350654  0.15616123    -0.54800
C1135       C  0.76814293  0.31406341  0.17934909     0.09200
C1136       C  0.83280473  0.33600005  0.20284958    -0.54300
C1137       C  0.81347052  0.31561159  0.22547725     0.09800
H1138       H  0.84808886  0.27622541  0.13655559     0.14300
H1139       H  0.77479605  0.27477095  0.22183773     0.00000
H1140       H  0.77667049  0.34746730  0.13355364     0.14600
H1141       H  0.85133824  0.35528798  0.21253235     0.14400
C1142       C  0.83219760  0.33308706  0.32823567     0.86200
C1143       C  0.79350495  0.34004850  0.33454282    -0.54100
C1144       C  0.77250729  0.31813583  0.31480943     0.09100
C1145       C  0.79281900  0.29247855  0.29039582     0.20000
C1146       C  0.83737392  0.29244241  0.33472760    -0.54800
C1147       C  0.81658817  0.27074435  0.31495412     0.09200
C1148       C  0.83537309  0.33845216  0.28658265    -0.54300
C1149       C  0.81516909  0.31636709  0.26639651     0.09800
H1150       H  0.78377961  0.36127412  0.35181229     0.14300
H1151       H  0.77708553  0.27579397  0.27505391     0.00000
H1152       H  0.85616318  0.28216394  0.35350708     0.14600
H1153       H  0.85108241  0.35899243  0.27434751     0.14400
C1154       C  0.61024519  0.10122959  0.40713244    -0.05700
C1155       C  0.62023187  0.13580448  0.41957733    -0.02800
C1156       C  0.64339047  0.15684169  0.39928940     0.02200
C1157       C  0.65490292  0.14508030  0.36474123    -0.05700
C1158       C  0.65064461  0.10801456  0.35664050    -0.02800
C1159       C  0.62798234  0.08659010  0.37704988     0.02200
C1160       C  0.60795430  0.14984831  0.45390495     0.36900
C1161       C  0.67145205  0.09087595  0.32900985     0.36900
C1162       C  0.62469058  0.04887173  0.36784561     0.35300
C1163       C  0.65822942  0.18824252  0.41640688     0.35300
N1164       N  0.62265053  0.01873884  0.36045789    -0.39500
N1165       N  0.67012140  0.21304215  0.43045516    -0.39500
N1166       N  0.68822514  0.07707870  0.30726428    -0.39000
N1167       N  0.59854450  0.16125501  0.48133773    -0.39000
C1168       C  0.59903741  0.39513930  0.10291328    -0.05700
C1169       C  0.58821712  0.37770129  0.13466451    -0.02800
C1170       C  0.61044787  0.35435475  0.15319939     0.02200
C1171       C  0.64487518  0.35018022  0.14166605    -0.05700
C1172       C  0.65365243  0.36404970  0.10693160    -0.02800
C1173       C  0.63148188  0.38773834  0.08874184     0.02200
C1174       C  0.55361168  0.38268728  0.14752799     0.36900
C1175       C  0.68290396  0.35073178  0.08711080     0.36900
C1176       C  0.64220406  0.40485411  0.05532607     0.35300
C1177       C  0.59669572  0.33275460  0.18247048     0.35300
N1178       N  0.65079127  0.41878173  0.02886644    -0.39500
N1179       N  0.58548279  0.31549971  0.20562274    -0.39500
N1180       N  0.70595955  0.34018609  0.07071362    -0.39000
N1181       N  0.52604996  0.38670253  0.15776115    -0.39000
C1182       C  0.85098469  0.13961025  0.14465701    -0.05700
C1183       C  0.84123600  0.10603741  0.12917513    -0.02800
C1184       C  0.86365847  0.08741317  0.10597131     0.02200
C1185       C  0.89718573  0.09928049  0.10128374    -0.05700
C1186       C  0.90861059  0.12975802  0.12015497    -0.02800
C1187       C  0.88602619  0.14938273  0.14230400     0.02200
C1188       C  0.81058550  0.08746255  0.14023923     0.36900
C1189       C  0.94398303  0.14055775  0.11735057     0.36900
C1190       C  0.89982763  0.17842675  0.16411694     0.35900
C1191       C  0.85182993  0.05640808  0.08592653     0.35300
N1192       N  0.91100319  0.20152431  0.18140466    -0.39500
N1193       N  0.84201644  0.03224786  0.06929629    -0.39500
N1194       N  0.97213586  0.14921131  0.11505802    -0.39000
N1195       N  0.78648185  0.07180344  0.14880036    -0.39000
C1196       C  0.64446254  0.14172744  0.14888365    -0.05700
C1197       C  0.65210956  0.13162295  0.11249231    -0.02800
C1198       C  0.62945917  0.10977782  0.09261292     0.02200
C1199       C  0.59796198  0.09972381  0.10761244    -0.05700
C1200       C  0.58807788  0.11396360  0.14138287    -0.02800
C1201       C  0.61042919  0.13628111  0.16100267     0.02200
C1202       C  0.68091099  0.14696355  0.09346412     0.36900
C1203       C  0.55384869  0.10794541  0.15481344     0.36900
C1204       C  0.59662389  0.15686689  0.19110062     0.35300
C1205       C  0.63828179  0.09819269  0.05620287     0.35300
N1206       N  0.58544851  0.17351670  0.21481824    -0.39500
N1207       N  0.64512784  0.08902034  0.02712538    -0.39500
N1208       N  0.52658034  0.10350579  0.16568023    -0.39000
N1209       N  0.70361436  0.15939203  0.07796819    -0.39000
C1210       C  0.90288913  0.39776284  0.39366852    -0.05700
C1211       C  0.91296087  0.38466074  0.35948083    -0.02800
C1212       C  0.89110141  0.36217702  0.33935292     0.02200
C1213       C  0.85734875  0.35517900  0.35162180    -0.05700
C1214       C  0.84988121  0.36374170  0.38841450    -0.02800
C1215       C  0.87195297  0.38591433  0.40873106     0.02200
C1216       C  0.94709327  0.39180337  0.34628302     0.36900
C1217       C  0.82187942  0.34647380  0.40710480     0.36900
C1218       C  0.86311893  0.39592681  0.44558968     0.35300
C1219       C  0.90535262  0.34289302  0.30864081     0.35300
N1220       N  0.85618680  0.40379118  0.47502958    -0.39500
N1221       N  0.91698199  0.32736677  0.28440233    -0.39500
N1222       N  0.79986054  0.33229913  0.42218161    -0.39000
N1223       N  0.97437316  0.39716603  0.33587824    -0.39000
C1224       C  0.90333721  0.10202835  0.39487603    -0.05700
C1225       C  0.91373129  0.13511075  0.38021756    -0.02800
C1226       C  0.89158411  0.15484524  0.35778906     0.02200
C1227       C  0.85708626  0.14397420  0.35332599    -0.05700
C1228       C  0.84871132  0.10820490  0.36394348    -0.02800
C1229       C  0.87153024  0.08778090  0.38514609     0.02200
C1230       C  0.94806906  0.14793795  0.38651448     0.36900
C1231       C  0.81850477  0.09049218  0.35033333     0.36900
C1232       C  0.86250186  0.05171530  0.39657598     0.35300
C1233       C  0.90582504  0.18395101  0.33648295     0.35300
N1234       N  0.85549517  0.02287215  0.40552204    -0.39500
N1235       N  0.91734970  0.20692151  0.31932897    -0.39500
N1236       N  0.79459891  0.07591495  0.33954277    -0.39000
N1237       N  0.97542607  0.15817288  0.39147744    -0.39000
C1238       C  0.65481050  0.36096890  0.35553584    -0.05700
C1239       C  0.64055638  0.39330599  0.34216551    -0.02800
C1240       C  0.61488185  0.41114834  0.36172785     0.02200
C1241       C  0.60762014  0.40133509  0.39807389    -0.05700
C1242       C  0.62718358  0.37346345  0.41400724    -0.02800
C1243       C  0.65094193  0.35387332  0.39301330     0.02200
C1244       C  0.65498790  0.41121585  0.31080631     0.36900
C1245       C  0.62326559  0.36440417  0.45196185     0.36900
C1246       C  0.67302841  0.32802906  0.41069429     0.35300
C1247       C  0.59512157  0.43824967  0.34290246     0.35300
N1248       N  0.69095118  0.30762703  0.42460654    -0.39500
N1249       N  0.57923718  0.45936510  0.32735075    -0.39500
N1250       N  0.62039535  0.35650479  0.48210036    -0.39000
N1251       N  0.66657884  0.42569827  0.28598500    -0.39000
C1252       C  0.85152910  0.35216668  0.13914885    -0.05700
C1253       C  0.88669959  0.34265782  0.13732268    -0.02800
C1254       C  0.90933457  0.36193761  0.11496652     0.02200
C1255       C  0.89813299  0.39260579  0.09630321    -0.05700
C1256       C  0.86424246  0.40378752  0.09975394    -0.02800
C1257       C  0.84152457  0.38509916  0.12245643     0.02200
C1258       C  0.90068852  0.31477923  0.16041986     0.36900
C1259       C  0.85215207  0.43387161  0.07854048     0.36900
C1260       C  0.80984936  0.40302047  0.13135350     0.35300
C1261       C  0.94442471  0.35030018  0.11131845     0.35300
N1262       N  0.78479697  0.41803238  0.13795763    -0.39500
N1263       N  0.97228553  0.34083685  0.10802569    -0.39500
N1264       N  0.84180390  0.45705399  0.06094294    -0.39000
N1265       N  0.91204007  0.29281161  0.17897167    -0.39000
N1266       N  0.95951436  0.45440815  0.56525640    -0.06400
N1267       N  0.93561986  0.44611616  0.58895108    -0.58600
N1268       N  0.53879041  0.43116389  0.54253297    -0.06100
N1269       N  0.56204450  0.40665681  0.54965838    -0.60700
N1270       N  0.53722932  0.45510066  0.56879382    -0.05700
N1271       N  0.55926407  0.44714070  0.59451842    -0.58500
N1272       N  0.96126235  0.42974318  0.53973361    -0.05400
N1273       N  0.93879109  0.40409197  0.54561717    -0.61000
C1274       C  0.92272565  0.41493394  0.57607878     0.95700
C1275       C  0.57478736  0.41715121  0.58190878     0.95500
N1276       N  0.54238705  0.45831515  0.93280659    -0.06600
N1277       N  0.56653496  0.45230596  0.90882758    -0.59100
N1278       N  0.96377324  0.43218523  0.95466262    -0.04700
N1279       N  0.94061131  0.40776451  0.94692945    -0.60400
N1280       N  0.96447313  0.45732236  0.92965402    -0.06600
N1281       N  0.94190046  0.45023013  0.90414704    -0.59400
N1282       N  0.54159574  0.43237438  0.95684716    -0.04400
N1283       N  0.56502530  0.40800261  0.94927896    -0.60500
Mn1284     Mn  0.50144086  0.43052853  0.49841025     1.18400
C1285       C  0.58064431  0.42081927  0.91921262     0.97800
C1286       C  0.92693651  0.41948913  0.91557995     0.98500
N1287       N  0.53646601  0.04056179  0.57097544    -0.06700
N1288       N  0.55841840  0.04780746  0.59703928    -0.63000
N1289       N  0.96012414  0.06546954  0.54241593    -0.05500
N1290       N  0.93723151  0.09044063  0.54959748    -0.63600
N1291       N  0.95880843  0.03970273  0.56675964    -0.06200
N1292       N  0.93480506  0.04649130  0.59081797    -0.63200
N1293       N  0.53763487  0.06558261  0.54586316    -0.05100
N1294       N  0.56051892  0.09011745  0.55410908    -0.63900
Mn1295     Mn  0.99791301  0.99743845  0.56894348     1.10700
C1296       C  0.57347137  0.07854848  0.58585855     0.99000
C1297       C  0.92136373  0.07793278  0.57947515     0.99100
N1298       N  0.96425611  0.04259177  0.93132674    -0.06200
N1299       N  0.94192107  0.04989505  0.90575189    -0.61600
N1300       N  0.54143465  0.06722807  0.96055229    -0.05500
N1301       N  0.56574997  0.09117725  0.95593782    -0.58300
N1302       N  0.54233535  0.04311955  0.93453587    -0.06800
N1303       N  0.56728644  0.05045273  0.91172592    -0.61100
N1304       N  0.96353530  0.06746724  0.95669210    -0.05800
N1305       N  0.94082448  0.09238647  0.94873392    -0.58300
Mn1306     Mn  0.50334784  0.50035882  0.93110328     1.20200
Mn1307     Mn  0.00066822  0.06731755  0.00138874     1.10100
Cl1308     Cl  0.50081796  0.99892522  0.49999155    -0.86300
C1309       C  0.92728002  0.08077864  0.91716593     0.96100
C1310       C  0.58210049  0.08045351  0.92545788     0.95900
C1311       C  0.67535358  0.16972118  0.83877263     0.86200
C1312       C  0.66836995  0.16290550  0.79782264    -0.54100
C1313       C  0.68818271  0.18254760  0.77475025     0.09100
C1314       C  0.71209383  0.20782964  0.79555493     0.20000
C1315       C  0.71408026  0.16432316  0.84357310    -0.54800
C1316       C  0.73374716  0.18429445  0.82077891     0.09200
C1317       C  0.66937877  0.21104252  0.84203008    -0.54300
C1318       C  0.68939434  0.23140007  0.81978428     0.09800
H1319       H  0.64884728  0.14472640  0.78823239     0.14300
H1320       H  0.72696103  0.22329382  0.77798190     0.00000
H1321       H  0.72461344  0.14586805  0.86329215     0.14600
H1322       H  0.64988266  0.22306307  0.85882247     0.14400
C1323       C  0.67554181  0.33533501  0.83108343     0.86200
C1324       C  0.66968829  0.29462682  0.83839317    -0.54100
C1325       C  0.68944528  0.27213884  0.81787147     0.09100
C1326       C  0.71234198  0.29331278  0.79165843     0.20000
C1327       C  0.71422772  0.34121582  0.83547394    -0.54800
C1328       C  0.73397198  0.31891068  0.81492969     0.09200
C1329       C  0.66836980  0.33799705  0.78985322    -0.54300
C1330       C  0.68849763  0.31681670  0.76877220     0.09800
H1331       H  0.65115191  0.28477894  0.85769513     0.14300
H1332       H  0.72719738  0.27627796  0.77540862     0.00000
H1333       H  0.72468453  0.36117635  0.85374720     0.14600
H1334       H  0.64759266  0.35320658  0.77840112     0.14400
C1335       C  0.67026730  0.32861307  0.66523666     0.86200
C1336       C  0.66692600  0.33630858  0.70647795    -0.54100
C1337       C  0.68693746  0.31522750  0.72794058     0.09100
C1338       C  0.70920911  0.28984514  0.70549728     0.20000
C1339       C  0.70900667  0.33470146  0.65882325    -0.54800
C1340       C  0.72968642  0.31349944  0.67949985     0.09200
C1341       C  0.66476351  0.28763435  0.66106321    -0.54300
C1342       C  0.68521399  0.26698840  0.68245703     0.09800
H1343       H  0.65066282  0.35725070  0.71734175     0.14300
H1344       H  0.72488505  0.27424823  0.72198770     0.00000
H1345       H  0.71931145  0.35572583  0.64192096     0.14600
H1346       H  0.64593056  0.27641065  0.64287999     0.14400
C1347       C  0.66963923  0.16397301  0.67193847     0.86200
C1348       C  0.66421362  0.20448798  0.66503551    -0.54100
C1349       C  0.68486511  0.22646327  0.68457784     0.09100
C1350       C  0.70882341  0.20512772  0.70933119     0.20000
C1351       C  0.70828335  0.15722198  0.66557188    -0.54800
C1352       C  0.72916387  0.17967207  0.68470813     0.09200
C1353       C  0.66653297  0.15893370  0.71368421    -0.54300
C1354       C  0.68661279  0.18130966  0.73369111     0.09800
H1355       H  0.64554769  0.21448669  0.64596069     0.14300
H1356       H  0.72463547  0.22176343  0.72465765     0.00000
H1357       H  0.71815903  0.13565638  0.64885969     0.14600
H1358       H  0.65069996  0.13858148  0.72609358     0.14400
C1359       C  0.83181143  0.16797732  0.83215577     0.86200
C1360       C  0.83663524  0.20918377  0.83751598    -0.54100
C1361       C  0.81650685  0.23007049  0.81601727     0.09100
C1362       C  0.79253234  0.20718601  0.79278540     0.20000
C1363       C  0.79321167  0.16335979  0.84054375    -0.54800
C1364       C  0.77223927  0.18361978  0.81915879     0.09200
C1365       C  0.83545803  0.16133649  0.79102723    -0.54300
C1366       C  0.81478166  0.18195233  0.77000019     0.09800
H1367       H  0.85372449  0.22063214  0.85738169     0.14300
H1368       H  0.77678668  0.22303835  0.77661643     0.00000
H1369       H  0.78348494  0.14695825  0.86238668     0.14600
H1370       H  0.85316837  0.14183319  0.77995528     0.14400
C1371       C  0.82623565  0.16369426  0.66648960     0.86200
C1372       C  0.83254307  0.15916419  0.70752387    -0.54100
C1373       C  0.81332380  0.18089511  0.72911201     0.09100
C1374       C  0.78942562  0.20485025  0.70692630     0.20000
C1375       C  0.78723325  0.15859473  0.66139893    -0.54800
C1376       C  0.76764159  0.17959317  0.68355139     0.09200
C1377       C  0.83059264  0.20448396  0.65880570    -0.54300
C1378       C  0.81176350  0.22648611  0.68063592     0.09800
H1379       H  0.85100797  0.14027352  0.71811795     0.14300
H1380       H  0.77461812  0.22168604  0.72340213     0.00000
H1381       H  0.77582243  0.14243401  0.64039397     0.14600
H1382       H  0.84705795  0.21471212  0.63765348     0.14400
C1383       C  0.82687622  0.32898443  0.66206317     0.86200
C1384       C  0.83142559  0.28775785  0.65690000    -0.54100
C1385       C  0.81214441  0.26717038  0.67965912     0.09100
C1386       C  0.78971669  0.29044788  0.70448642     0.20000
C1387       C  0.78790516  0.33350670  0.65616124    -0.54800
C1388       C  0.76814296  0.31406350  0.67934906     0.09200
C1389       C  0.83280480  0.33600002  0.70284957    -0.54300
C1390       C  0.81347055  0.31561158  0.72547722     0.09800
H1391       H  0.84808879  0.27622549  0.63655542     0.14300
H1392       H  0.77479610  0.27477104  0.72183766     0.00000
H1393       H  0.77667053  0.34746754  0.63355369     0.14600
H1394       H  0.85133837  0.35528785  0.71253238     0.14400
C1395       C  0.83219762  0.33308703  0.82823569     0.86200
C1396       C  0.79350498  0.34004845  0.83454290    -0.54100
C1397       C  0.77250730  0.31813579  0.81480948     0.09100
C1398       C  0.79281901  0.29247853  0.79039583     0.20000
C1399       C  0.83737394  0.29244238  0.83472764    -0.54800
C1400       C  0.81658820  0.27074433  0.81495413     0.09200
C1401       C  0.83537305  0.33845216  0.78658264    -0.54300
C1402       C  0.81516909  0.31636705  0.76639651     0.09800
H1403       H  0.78377968  0.36127404  0.85181244     0.14300
H1404       H  0.77708557  0.27579400  0.77505387     0.00000
H1405       H  0.85616313  0.28216392  0.85350722     0.14600
H1406       H  0.85108225  0.35899252  0.77434747     0.14400
C1407       C  0.61024531  0.10122949  0.90713253    -0.05700
C1408       C  0.62023182  0.13580445  0.91957734    -0.02800
C1409       C  0.64339033  0.15684171  0.89928935     0.02200
C1410       C  0.65490290  0.14508027  0.86474121    -0.05700
C1411       C  0.65064462  0.10801452  0.85664049    -0.02800
C1412       C  0.62798245  0.08659003  0.87704995     0.02200
C1413       C  0.60795432  0.14984821  0.95390502     0.36900
C1414       C  0.67145189  0.09087599  0.82900964     0.36900
C1415       C  0.62469073  0.04887166  0.86784568     0.35300
C1416       C  0.65822915  0.18824262  0.91640683     0.35300
N1417       N  0.62265069  0.01873878  0.86045794    -0.39500
N1418       N  0.67012105  0.21304221  0.93045524    -0.39500
N1419       N  0.68822481  0.07707889  0.80726383    -0.39000
N1420       N  0.59854465  0.16125471  0.98133793    -0.39000
C1421       C  0.59903754  0.39513945  0.60291342    -0.05700
C1422       C  0.58821719  0.37770139  0.63466460    -0.02800
C1423       C  0.61044788  0.35435474  0.65319944     0.02200
C1424       C  0.64487518  0.35018018  0.64166612    -0.05700
C1425       C  0.65365249  0.36404967  0.60693170    -0.02800
C1426       C  0.63148198  0.38773838  0.58874194     0.02200
C1427       C  0.55361178  0.38268750  0.64752820     0.36900
C1428       C  0.68290401  0.35073174  0.58711089     0.36900
C1429       C  0.64220419  0.40485408  0.55532615     0.35300
C1430       C  0.59669570  0.33275478  0.68247064     0.35300
N1431       N  0.65079142  0.41878167  0.52886651    -0.39500
N1432       N  0.58548268  0.31550018  0.70562306    -0.39500
N1433       N  0.70595955  0.34018602  0.57071364    -0.39000
N1434       N  0.52605012  0.38670279  0.65776150    -0.39000
C1435       C  0.85098457  0.13961019  0.64465705    -0.05700
C1436       C  0.84123594  0.10603735  0.62917518    -0.02800
C1437       C  0.86365845  0.08741313  0.60597140     0.02200
C1438       C  0.89718571  0.09928046  0.60128387    -0.05700
C1439       C  0.90861051  0.12975802  0.62015505    -0.02800
C1440       C  0.88602607  0.14938269  0.64230406     0.02200
C1441       C  0.81058551  0.08746243  0.64023935     0.36900
C1442       C  0.94398288  0.14055799  0.61735040     0.36900
C1443       C  0.89982744  0.17842672  0.66411700     0.35900
C1444       C  0.85182998  0.05640803  0.58592660     0.35300
N1445       N  0.91100285  0.20152432  0.68140476    -0.39500
N1446       N  0.84201660  0.03224780  0.56929633    -0.39500
N1447       N  0.97213562  0.14921182  0.61505755    -0.39000
N1448       N  0.78648199  0.07180320  0.64880064    -0.39000
C1449       C  0.64446247  0.14172749  0.64888345    -0.05700
C1450       C  0.65210953  0.13162307  0.61249211    -0.02800
C1451       C  0.62945916  0.10977802  0.59261264     0.02200
C1452       C  0.59796200  0.09972388  0.60761215    -0.05700
C1453       C  0.58807786  0.11396359  0.64138259    -0.02800
C1454       C  0.61042911  0.13628111  0.66100241     0.02200
C1455       C  0.68091103  0.14696367  0.59346402     0.36900
C1456       C  0.55384868  0.10794533  0.65481321     0.36900
C1457       C  0.59662375  0.15686696  0.69110026     0.35300
C1458       C  0.63828174  0.09819309  0.55620254     0.35300
N1459       N  0.58544835  0.17351691  0.71481777    -0.39500
N1460       N  0.64512772  0.08902088  0.52712498    -0.39500
N1461       N  0.52658042  0.10350573  0.66568026    -0.39000
N1462       N  0.70361439  0.15939224  0.57796817    -0.39000
C1463       C  0.90288915  0.39776274  0.89366860    -0.05700
C1464       C  0.91296079  0.38466089  0.85948079    -0.02800
C1465       C  0.89110134  0.36217723  0.83935283     0.02200
C1466       C  0.85734875  0.35517899  0.85162180    -0.05700
C1467       C  0.84988130  0.36374153  0.88841456    -0.02800
C1468       C  0.87195308  0.38591407  0.90873119     0.02200
C1469       C  0.94709312  0.39180369  0.84628286     0.36900
C1470       C  0.82187963  0.34647347  0.90710486     0.36900
C1471       C  0.86311918  0.39592624  0.94558993     0.35300
C1472       C  0.90535253  0.34289344  0.80864059     0.35300
N1473       N  0.85618718  0.40379034  0.97502994    -0.39500
N1474       N  0.91698190  0.32736726  0.78440206    -0.39500
N1475       N  0.79986091  0.33229857  0.92218168    -0.39000
N1476       N  0.97437295  0.39716636  0.83587796    -0.39000
C1477       C  0.90333725  0.10202849  0.89487615    -0.05700
C1478       C  0.91373126  0.13511085  0.88021754    -0.02800
C1479       C  0.89158405  0.15484521  0.85778897     0.02200
C1480       C  0.85708619  0.14397419  0.85332602    -0.05700
C1481       C  0.84871124  0.10820497  0.86394379    -0.02800
C1482       C  0.87153026  0.08778101  0.88514634     0.02200
C1483       C  0.94806901  0.14793819  0.88651437     0.36900
C1484       C  0.81850473  0.09049217  0.85033367     0.36900
C1485       C  0.86250203  0.05171533  0.89657619     0.35300
C1486       C  0.90582496  0.18395089  0.83648273     0.35300
N1487       N  0.85549556  0.02287213  0.90552230    -0.39500
N1488       N  0.91734963  0.20692134  0.81932869    -0.39500
N1489       N  0.79459895  0.07591486  0.83954307    -0.39000
N1490       N  0.97542597  0.15817334  0.89147721    -0.39000
C1491       C  0.65481040  0.36096869  0.85553583    -0.05700
C1492       C  0.64055641  0.39330585  0.84216552    -0.02800
C1493       C  0.61488190  0.41114825  0.86172782     0.02200
C1494       C  0.60762005  0.40133495  0.89807382    -0.05700
C1495       C  0.62718346  0.37346331  0.91400720    -0.02800
C1496       C  0.65094176  0.35387309  0.89301327     0.02200
C1497       C  0.65498806  0.41121565  0.81080637     0.36900
C1498       C  0.62326547  0.36440420  0.95196181     0.36900
C1499       C  0.67302811  0.32802869  0.91069423     0.35300
C1500       C  0.59512163  0.43824955  0.84290234     0.35300
N1501       N  0.69095081  0.30762648  0.92460634    -0.39500
N1502       N  0.57923726  0.45936488  0.82735049    -0.39500
N1503       N  0.62039504  0.35650505  0.98210037    -0.39000
N1504       N  0.66657921  0.42569794  0.78598510    -0.39000
C1505       C  0.85152919  0.35216671  0.63914883    -0.05700
C1506       C  0.88669967  0.34265778  0.63732268    -0.02800
C1507       C  0.90933465  0.36193741  0.61496638     0.02200
C1508       C  0.89813317  0.39260567  0.59630315    -0.05700
C1509       C  0.86424265  0.40378744  0.59975381    -0.02800
C1510       C  0.84152469  0.38509915  0.62245629     0.02200
C1511       C  0.90068859  0.31477921  0.66041991     0.36900
C1512       C  0.85215237  0.43387166  0.57854049     0.36900
C1513       C  0.80984949  0.40302058  0.63135325     0.35300
C1514       C  0.94442468  0.35029971  0.61131806     0.35300
N1515       N  0.78479713  0.41803262  0.63795719    -0.39500
N1516       N  0.97228544  0.34083623  0.60802517    -0.39500
N1517       N  0.84180426  0.45705426  0.56094321    -0.39000
N1518       N  0.91204019  0.29281161  0.67897170    -0.39000
N1519       N  0.95951441  0.95440790  0.06525647    -0.06400
N1520       N  0.93561991  0.94611597  0.08895118    -0.58600
N1521       N  0.53879046  0.93116410  0.04253285    -0.06100
N1522       N  0.56204471  0.90665715  0.04965808    -0.60700
N1523       N  0.53722925  0.95510071  0.06879382    -0.05700
N1524       N  0.55926401  0.94714075  0.09451838    -0.58500
N1525       N  0.96126221  0.92974300  0.03973358    -0.05400
N1526       N  0.93879074  0.90409195  0.04561707    -0.61000
C1527       C  0.92272543  0.91493392  0.07607877     0.95700
C1528       C  0.57478748  0.91715146  0.08190855     0.95500
N1529       N  0.54238723  0.95831552  0.43280678    -0.06600
N1530       N  0.56653527  0.95230652  0.40882789    -0.59100
N1531       N  0.96377327  0.93218495  0.45466258    -0.04700
N1532       N  0.94061143  0.90776418  0.44692923    -0.60400
N1533       N  0.96447305  0.95732224  0.42965416    -0.06600
N1534       N  0.94190032  0.95023013  0.40414716    -0.59400
N1535       N  0.54159590  0.93237468  0.45684726    -0.04400
N1536       N  0.56502550  0.90800297  0.44927907    -0.60500
Mn1537     Mn  0.50144089  0.93052867  0.99841028     1.18400
C1538       C  0.58064458  0.92081978  0.41921287     0.97800
C1539       C  0.92693648  0.91948898  0.41557987     0.98500
N1540       N  0.53646584  0.54056181  0.07097529    -0.06700
N1541       N  0.55841843  0.54780737  0.09703896    -0.63000
N1542       N  0.96012396  0.56546941  0.04241541    -0.05500
N1543       N  0.93723129  0.59044047  0.04959692    -0.63600
N1544       N  0.95880825  0.53970269  0.06675922    -0.06200
N1545       N  0.93480489  0.54649128  0.09081755    -0.63200
N1546       N  0.53763466  0.56558265  0.04586303    -0.05100
N1547       N  0.56051889  0.59011737  0.05410879    -0.63900
Mn1548     Mn  0.99791283  0.49743861  0.06894325     1.10700
C1549       C  0.57347152  0.57854830  0.08585815     0.99000
C1550       C  0.92136353  0.57793272  0.07947466     0.99100
N1551       N  0.96425631  0.54259199  0.43132625    -0.06200
N1552       N  0.94192147  0.54989540  0.40575125    -0.61600
N1553       N  0.54143445  0.56722799  0.46055193    -0.05500
N1554       N  0.56574976  0.59117718  0.45593744    -0.58300
N1555       N  0.54233515  0.54311943  0.43453554    -0.06800
N1556       N  0.56728620  0.55045262  0.41172555    -0.61100
N1557       N  0.96353541  0.56746736  0.45669170    -0.05800
N1558       N  0.94082464  0.59238663  0.44873349    -0.58300
Mn1559     Mn  0.50334789  0.00035897  0.43110337     1.20200
Mn1560     Mn  0.00066822  0.56731763  0.50138848     1.10100
Cl1561     Cl  0.50081798  0.49892508  0.99999146    -0.86300
C1562       C  0.92728040  0.58077895  0.41716536     0.96100
C1563       C  0.58210028  0.58045338  0.42545750     0.95900
C1564       C  0.67535332  0.66972112  0.33877235     0.86200
C1565       C  0.66836989  0.66290546  0.29782232    -0.54100
C1566       C  0.68818264  0.68254773  0.27475004     0.09100
C1567       C  0.71209362  0.70782979  0.29555487     0.20000
C1568       C  0.71407998  0.66432322  0.34357296    -0.54800
C1569       C  0.73374693  0.68429454  0.32077886     0.09200
C1570       C  0.66937833  0.71104245  0.34202982    -0.54300
C1571       C  0.68939396  0.73140012  0.31978417     0.09800
H1572       H  0.64884738  0.64472624  0.28823195     0.14300
H1573       H  0.72696085  0.72329400  0.27798187     0.00000
H1574       H  0.72461310  0.64586808  0.36329203     0.14600
H1575       H  0.64988212  0.72306289  0.35882217     0.14400
C1576       C  0.67554135  0.83533515  0.33108331     0.86200
C1577       C  0.66968781  0.79462694  0.33839310    -0.54100
C1578       C  0.68944481  0.77213894  0.31787141     0.09100
C1579       C  0.71234152  0.79331290  0.29165840     0.20000
C1580       C  0.71422726  0.84121594  0.33547387    -0.54800
C1581       C  0.73397154  0.81891079  0.31492967     0.09200
C1582       C  0.66836931  0.83799717  0.28985314    -0.54300
C1583       C  0.68849714  0.81681681  0.26877216     0.09800
H1584       H  0.65115146  0.78477910  0.35769512     0.14300
H1585       H  0.72719695  0.77627810  0.27540862     0.00000
H1586       H  0.72468406  0.86117643  0.35374721     0.14600
H1587       H  0.64759216  0.85320671  0.27840105     0.14400
C1588       C  0.67026688  0.82861322  0.16523669     0.86200
C1589       C  0.66692542  0.83630860  0.20647795    -0.54100
C1590       C  0.68693692  0.81522757  0.22794058     0.09100
C1591       C  0.70920872  0.78984534  0.20549731     0.20000
C1592       C  0.70900623  0.83470187  0.15882350    -0.54800
C1593       C  0.72968599  0.81349982  0.17950003     0.09200
C1594       C  0.66476329  0.78763445  0.16106307    -0.54300
C1595       C  0.68521378  0.76698852  0.18245690     0.09800
H1596       H  0.65066219  0.85725070  0.21734172     0.14300
H1597       H  0.72488467  0.77424848  0.22198775     0.00000
H1598       H  0.71931098  0.85572644  0.14192142     0.14600
H1599       H  0.64593049  0.77641069  0.14287972     0.14400
C1600       C  0.66963957  0.66397291  0.17193821     0.86200
C1601       C  0.66421383  0.70448788  0.16503515    -0.54100
C1602       C  0.68486517  0.72646333  0.18457755     0.09100
C1603       C  0.70882351  0.70512788  0.20933098     0.20000
C1604       C  0.70828372  0.65722203  0.16557174    -0.54800
C1605       C  0.72916412  0.67967222  0.18470804     0.09200
C1606       C  0.66653325  0.65893369  0.21368396    -0.54300
C1607       C  0.68661288  0.68130980  0.23369089     0.09800
H1608       H  0.64554790  0.71448646  0.14596025     0.14300
H1609       H  0.72463550  0.72176366  0.22465749     0.00000
H1610       H  0.71815947  0.63565644  0.14885959     0.14600
H1611       H  0.65070036  0.63858136  0.22609334     0.14400
C1612       C  0.83181123  0.66797742  0.33215592     0.86200
C1613       C  0.83663482  0.70918386  0.33751633    -0.54100
C1614       C  0.81650650  0.73007057  0.31601750     0.09100
C1615       C  0.79253215  0.70718608  0.29278548     0.20000
C1616       C  0.79321143  0.66335965  0.34054365    -0.54800
C1617       C  0.77223905  0.68361972  0.31915873     0.09200
C1618       C  0.83545811  0.66133684  0.29102739    -0.54300
C1619       C  0.81478172  0.68195258  0.27000032     0.09800
H1620       H  0.85372397  0.72063219  0.35738216     0.14300
H1621       H  0.77678650  0.72303840  0.27661648     0.00000
H1622       H  0.78348466  0.64695803  0.36238648     0.14600
H1623       H  0.85316870  0.64183380  0.27995543     0.14400
C1624       C  0.82623604  0.66369455  0.16648981     0.86200
C1625       C  0.83254348  0.65916463  0.20752408    -0.54100
C1626       C  0.81332408  0.68089549  0.22911216     0.09100
C1627       C  0.78942578  0.70485046  0.20692640     0.20000
C1628       C  0.78723364  0.65859496  0.16139914    -0.54800
C1629       C  0.76764186  0.67959329  0.18355154     0.09200
C1630       C  0.83059294  0.70448428  0.15880590    -0.54300
C1631       C  0.81176354  0.72648639  0.18063599     0.09800
H1632       H  0.85100846  0.64027407  0.21811822     0.14300
H1633       H  0.77461821  0.72168621  0.22340220     0.00000
H1634       H  0.77582286  0.64243449  0.14039396     0.14600
H1635       H  0.84705834  0.71471245  0.13765376     0.14400
C1636       C  0.82687569  0.82898479  0.16206318     0.86200
C1637       C  0.83142507  0.78775821  0.15689989    -0.54100
C1638       C  0.81214404  0.76717068  0.17965908     0.09100
C1639       C  0.78971627  0.79044812  0.20448644     0.20000
C1640       C  0.78790465  0.83350705  0.15616132    -0.54800
C1641       C  0.76814251  0.81406383  0.17934917     0.09200
C1642       C  0.83280429  0.83600030  0.20284961    -0.54300
C1643       C  0.81347012  0.81561179  0.22547727     0.09800
H1644       H  0.84808824  0.77622587  0.13655526     0.14300
H1645       H  0.77479570  0.77477123  0.22183770     0.00000
H1646       H  0.77666998  0.84746786  0.13355378     0.14600
H1647       H  0.85133783  0.85528814  0.21253246     0.14400
C1648       C  0.83219722  0.83308711  0.32823577     0.86200
C1649       C  0.79350456  0.84004847  0.33454300    -0.54100
C1650       C  0.77250689  0.81813580  0.31480959     0.09100
C1651       C  0.79281864  0.79247859  0.29039592     0.20000
C1652       C  0.83737363  0.79244245  0.33472764    -0.54800
C1653       C  0.81658785  0.77074439  0.31495422     0.09200
C1654       C  0.83537263  0.83845230  0.28658274    -0.54300
C1655       C  0.81516867  0.81636721  0.26639658     0.09800
H1656       H  0.78377924  0.86127413  0.35181245     0.14300
H1657       H  0.77708518  0.77579405  0.27505396     0.00000
H1658       H  0.85616293  0.78216397  0.35350709     0.14600
H1659       H  0.85108186  0.85899267  0.27434763     0.14400
C1660       C  0.61024531  0.60122917  0.40713230    -0.05700
C1661       C  0.62023225  0.63580389  0.41957740    -0.02800
C1662       C  0.64339055  0.65684126  0.39928923     0.02200
C1663       C  0.65490272  0.64508005  0.36474089    -0.05700
C1664       C  0.65064453  0.60801428  0.35664019    -0.02800
C1665       C  0.62798229  0.58658977  0.37704957     0.02200
C1666       C  0.60795551  0.64984715  0.45390559     0.36900
C1667       C  0.67145211  0.59087580  0.32900958     0.36900
C1668       C  0.62469026  0.54887153  0.36784498     0.35300
C1669       C  0.65822943  0.68824220  0.41640654     0.35300
N1670       N  0.62264998  0.51873874  0.36045688    -0.39500
N1671       N  0.67012135  0.71304193  0.43045467    -0.39500
N1672       N  0.68822537  0.57707885  0.30726398    -0.39000
N1673       N  0.59854646  0.66125315  0.48133897    -0.39000
C1674       C  0.59903747  0.89513959  0.10291320    -0.05700
C1675       C  0.58821694  0.87770159  0.13466434    -0.02800
C1676       C  0.61044753  0.85435496  0.15319931     0.02200
C1677       C  0.64487485  0.85018031  0.14166609    -0.05700
C1678       C  0.65365230  0.86404971  0.10693166    -0.02800
C1679       C  0.63148193  0.88773845  0.08874183     0.02200
C1680       C  0.55361141  0.88268771  0.14752760     0.36900
C1681       C  0.68290409  0.85073201  0.08711114     0.36900
C1682       C  0.64220438  0.90485437  0.05532624     0.35300
C1683       C  0.59669526  0.83275494  0.18247043     0.35300
N1684       N  0.65079172  0.91878220  0.02886677    -0.39500
N1685       N  0.58548238  0.81550016  0.20562279    -0.39500
N1686       N  0.70596002  0.84018657  0.07071433    -0.39000
N1687       N  0.52604961  0.88670308  0.15776043    -0.39000
C1688       C  0.85098487  0.63961030  0.14465722    -0.05700
C1689       C  0.84123605  0.60603751  0.12917526    -0.02800
C1690       C  0.86365836  0.58741325  0.10597127     0.02200
C1691       C  0.89718562  0.59928051  0.10128349    -0.05700
C1692       C  0.90861060  0.62975798  0.12015476    -0.02800
C1693       C  0.88602637  0.64938263  0.14230405     0.02200
C1694       C  0.81058547  0.58746278  0.14023925     0.36900
C1695       C  0.94398296  0.64055793  0.11734992     0.36900
C1696       C  0.89982793  0.67842654  0.16411698     0.35900
C1697       C  0.85182964  0.55640815  0.08592659     0.35300
N1698       N  0.91100361  0.70152403  0.18140467    -0.39500
N1699       N  0.84201590  0.53224792  0.06929657    -0.39500
N1700       N  0.97213567  0.64921183  0.11505697    -0.39000
N1701       N  0.78648174  0.57180369  0.14880013    -0.39000
C1702       C  0.64446290  0.64172712  0.14888321    -0.05700
C1703       C  0.65210989  0.63162283  0.11249181    -0.02800
C1704       C  0.62945943  0.60977793  0.09261220     0.02200
C1705       C  0.59796232  0.59972361  0.10761175    -0.05700
C1706       C  0.58807837  0.61396292  0.14138242    -0.02800
C1707       C  0.61042958  0.63628056  0.16100218     0.02200
C1708       C  0.68091135  0.64696358  0.09346383     0.36900
C1709       C  0.55384942  0.60794394  0.15481338     0.36900
C1710       C  0.59662417  0.65686657  0.19109986     0.35300
C1711       C  0.63828194  0.59819321  0.05620198     0.35300
N1712       N  0.58544885  0.67351671  0.21481724    -0.39500
N1713       N  0.64512780  0.58902113  0.02712435    -0.39500
N1714       N  0.52658131  0.60350344  0.16568049    -0.39000
N1715       N  0.70361471  0.65939230  0.07796809    -0.39000
C1716       C  0.90288894  0.89776270  0.39366854    -0.05700
C1717       C  0.91296063  0.88466047  0.35948091    -0.02800
C1718       C  0.89110107  0.86217689  0.33935299     0.02200
C1719       C  0.85734838  0.85517904  0.35162188    -0.05700
C1720       C  0.84988092  0.86374167  0.38841463    -0.02800
C1721       C  0.87195282  0.88591419  0.40873119     0.02200
C1722       C  0.94709319  0.89180257  0.34628333     0.36900
C1723       C  0.82187909  0.84647376  0.40710483     0.36900
C1724       C  0.86311915  0.89592646  0.44558994     0.35300
C1725       C  0.90535220  0.84289271  0.30864097     0.35300
N1726       N  0.85618767  0.90379084  0.47503001    -0.39500
N1727       N  0.91698145  0.82736621  0.28440259    -0.39500
N1728       N  0.79986009  0.83229894  0.42218133    -0.39000
N1729       N  0.97437321  0.89716471  0.33587872    -0.39000
C1730       C  0.90333751  0.60202874  0.39487579    -0.05700
C1731       C  0.91373137  0.63511111  0.38021715    -0.02800
C1732       C  0.89158394  0.65484549  0.35778886     0.02200
C1733       C  0.85708608  0.64397436  0.35332610    -0.05700
C1734       C  0.84871124  0.60820516  0.36394405    -0.02800
C1735       C  0.87153036  0.58778134  0.38514658     0.02200
C1736       C  0.94806911  0.64793853  0.38651376     0.36900
C1737       C  0.81850475  0.59049217  0.35033417     0.36900
C1738       C  0.86250193  0.55171606  0.39657745     0.35300
C1739       C  0.90582469  0.68395122  0.33648258     0.35300
N1740       N  0.85549534  0.52287322  0.40552463    -0.39500
N1741       N  0.91734935  0.70692159  0.31932842    -0.39500
N1742       N  0.79459898  0.57591463  0.33954381    -0.39000
N1743       N  0.97542605  0.65817387  0.39147636    -0.39000
C1744       C  0.65480997  0.86096885  0.35553564    -0.05700
C1745       C  0.64055586  0.89330595  0.34216529    -0.02800
C1746       C  0.61488148  0.91114840  0.36172773     0.02200
C1747       C  0.60761999  0.90133526  0.39807384    -0.05700
C1748       C  0.62718338  0.87346354  0.41400711    -0.02800
C1749       C  0.65094155  0.85387333  0.39301309     0.02200
C1750       C  0.65498754  0.91121586  0.31080622     0.36900
C1751       C  0.62326563  0.86440438  0.45196175     0.36900
C1752       C  0.67302823  0.82802921  0.41069398     0.35300
C1753       C  0.59512120  0.93824983  0.34290246     0.35300
N1754       N  0.69095129  0.80762731  0.42460602    -0.39500
N1755       N  0.57923680  0.95936540  0.32735097    -0.39500
N1756       N  0.62039557  0.85650508  0.48210030    -0.39000
N1757       N  0.66657875  0.92569825  0.28598503    -0.39000
C1758       C  0.85152869  0.85216709  0.13914889    -0.05700
C1759       C  0.88669918  0.84265816  0.13732299    -0.02800
C1760       C  0.90933427  0.86193770  0.11496675     0.02200
C1761       C  0.89813286  0.89260578  0.09630317    -0.05700
C1762       C  0.86424226  0.90378749  0.09975345    -0.02800
C1763       C  0.84152420  0.88509937  0.12245600     0.02200
C1764       C  0.90068789  0.81477933  0.16042006     0.36900
C1765       C  0.85215198  0.93387142  0.07853967     0.36900
C1766       C  0.80984894  0.90302080  0.13135276     0.35300
C1767       C  0.94442423  0.85029974  0.11131850     0.35300
N1768       N  0.78479649  0.91803267  0.13795677    -0.39500
N1769       N  0.97228486  0.84083581  0.10802567    -0.39500
N1770       N  0.84180383  0.95705375  0.06094205    -0.39000
N1771       N  0.91203922  0.79281139  0.17897164    -0.39000
N1772       N  0.95951431  0.95440790  0.56525668    -0.06400
N1773       N  0.93561970  0.94611606  0.58895130    -0.58600
N1774       N  0.53879044  0.93116401  0.54253284    -0.06100
N1775       N  0.56204463  0.90665699  0.54965812    -0.60700
N1776       N  0.53722929  0.95510066  0.56879378    -0.05700
N1777       N  0.55926405  0.94714069  0.59451833    -0.58500
N1778       N  0.96126211  0.92974302  0.53973377    -0.05400
N1779       N  0.93879056  0.90409204  0.54561720    -0.61000
C1780       C  0.92272518  0.91493404  0.57607885     0.95700
C1781       C  0.57478742  0.91715133  0.58190857     0.95500
N1782       N  0.54238720  0.95831547  0.93280683    -0.06600
N1783       N  0.56653523  0.95230643  0.90882793    -0.59100
N1784       N  0.96377338  0.93218504  0.95466243    -0.04700
N1785       N  0.94061143  0.90776435  0.94692917    -0.60400
N1786       N  0.96447312  0.95732238  0.92965405    -0.06600
N1787       N  0.94190026  0.95023037  0.90414716    -0.59400
N1788       N  0.54159588  0.93237466  0.95684734    -0.04400
N1789       N  0.56502545  0.90800293  0.94927916    -0.60500
Mn1790     Mn  0.50144091  0.93052867  0.49841026     1.18400
C1791       C  0.58064454  0.92081970  0.91921294     0.97800
C1792       C  0.92693638  0.91948924  0.91557988     0.98500
N1793       N  0.53646597  0.54056199  0.57097519    -0.06700
N1794       N  0.55841857  0.54780760  0.59703884    -0.63000
N1795       N  0.96012410  0.56546966  0.54241551    -0.05500
N1796       N  0.93723142  0.59044072  0.54959701    -0.63600
N1797       N  0.95880834  0.53970288  0.56675926    -0.06200
N1798       N  0.93480494  0.54649146  0.59081756    -0.63200
N1799       N  0.53763479  0.56558275  0.54586286    -0.05100
N1800       N  0.56051904  0.59011750  0.55410856    -0.63900
Mn1801     Mn  0.99791292  0.49743872  0.56894322     1.10700
C1802       C  0.57347168  0.57854849  0.58585795     0.99000
C1803       C  0.92136359  0.57793291  0.57947468     0.99100
N1804       N  0.96425631  0.54259181  0.93132607    -0.06200
N1805       N  0.94192142  0.54989519  0.90575109    -0.61600
N1806       N  0.54143453  0.56722796  0.96055212    -0.05500
N1807       N  0.56574983  0.59117718  0.95593756    -0.58300
N1808       N  0.54233523  0.54311941  0.93453572    -0.06800
N1809       N  0.56728620  0.55045264  0.91172565    -0.61100
N1810       N  0.96353540  0.56746721  0.95669150    -0.05800
N1811       N  0.94082466  0.59238648  0.94873328    -0.58300
Mn1812     Mn  0.50334791  0.00035894  0.93110334     1.20200
Mn1813     Mn  0.00066814  0.56731750  0.00138842     1.10100
Cl1814     Cl  0.50081798  0.49892507  0.49999140    -0.86300
C1815       C  0.92728036  0.58077875  0.91716519     0.96100
C1816       C  0.58210029  0.58045342  0.92545757     0.95900
C1817       C  0.67535333  0.66972106  0.83877241     0.86200
C1818       C  0.66836992  0.66290538  0.79782239    -0.54100
C1819       C  0.68818270  0.68254761  0.77475012     0.09100
C1820       C  0.71209366  0.70782973  0.79555496     0.20000
C1821       C  0.71407999  0.66432321  0.84357312    -0.54800
C1822       C  0.73374695  0.68429456  0.82077905     0.09200
C1823       C  0.66937827  0.71104236  0.84202985    -0.54300
C1824       C  0.68939392  0.73140003  0.81978422     0.09800
H1825       H  0.64884738  0.64472620  0.78823199     0.14300
H1826       H  0.72696089  0.72329397  0.77798198     0.00000
H1827       H  0.72461312  0.64586808  0.86329221     0.14600
H1828       H  0.64988207  0.72306279  0.85882224     0.14400
C1829       C  0.67554132  0.83533502  0.83108345     0.86200
C1830       C  0.66968778  0.79462680  0.83839321    -0.54100
C1831       C  0.68944480  0.77213883  0.81787152     0.09100
C1832       C  0.71234152  0.79331278  0.79165849     0.20000
C1833       C  0.71422721  0.84121584  0.83547398    -0.54800
C1834       C  0.73397150  0.81891070  0.81492977     0.09200
C1835       C  0.66836926  0.83799707  0.78985330    -0.54300
C1836       C  0.68849711  0.81681673  0.76877230     0.09800
H1837       H  0.65115138  0.78477889  0.85769514     0.14300
H1838       H  0.72719699  0.77627799  0.77540872     0.00000
H1839       H  0.72468399  0.86117636  0.85374726     0.14600
H1840       H  0.64759215  0.85320668  0.77840125     0.14400
C1841       C  0.67026686  0.82861319  0.66523685     0.86200
C1842       C  0.66692548  0.83630868  0.70647812    -0.54100
C1843       C  0.68693695  0.81522760  0.72794075     0.09100
C1844       C  0.70920869  0.78984531  0.70549751     0.20000
C1845       C  0.70900621  0.83470170  0.65882356    -0.54800
C1846       C  0.72968597  0.81349969  0.67950016     0.09200
C1847       C  0.66476316  0.78763443  0.66106336    -0.54300
C1848       C  0.68521368  0.76698851  0.68245719     0.09800
H1849       H  0.65066227  0.85725080  0.71734189     0.14300
H1850       H  0.72488466  0.77424841  0.72198792     0.00000
H1851       H  0.71931091  0.85572615  0.64192131     0.14600
H1852       H  0.64593031  0.77641068  0.64288006     0.14400
C1853       C  0.66963953  0.66397300  0.67193825     0.86200
C1854       C  0.66421381  0.70448797  0.66503525    -0.54100
C1855       C  0.68486510  0.72646335  0.68457777     0.09100
C1856       C  0.70882348  0.70512786  0.70933111     0.20000
C1857       C  0.70828368  0.65722209  0.66557177    -0.54800
C1858       C  0.72916408  0.67967225  0.68470811     0.09200
C1859       C  0.66653316  0.65893373  0.71368399    -0.54300
C1860       C  0.68661288  0.68130974  0.73369098     0.09800
H1861       H  0.64554791  0.71448659  0.64596035     0.14300
H1862       H  0.72463550  0.72176360  0.72465766     0.00000
H1863       H  0.71815942  0.63565651  0.64885959     0.14600
H1864       H  0.65070015  0.63858148  0.72609333     0.14400
C1865       C  0.83181129  0.66797742  0.83215593     0.86200
C1866       C  0.83663502  0.70918386  0.83751619    -0.54100
C1867       C  0.81650662  0.73007059  0.81601745     0.09100
C1868       C  0.79253216  0.70718609  0.79278557     0.20000
C1869       C  0.79321151  0.66335980  0.84054391    -0.54800
C1870       C  0.77223908  0.68361985  0.81915898     0.09200
C1871       C  0.83545798  0.66133668  0.79102741    -0.54300
C1872       C  0.81478159  0.68195247  0.77000038     0.09800
H1873       H  0.85372424  0.72063219  0.85738194     0.14300
H1874       H  0.77678648  0.72303841  0.77661658     0.00000
H1875       H  0.78348482  0.64695823  0.86238683     0.14600
H1876       H  0.85316846  0.64183353  0.77995543     0.14400
C1877       C  0.82623594  0.66369453  0.66648984     0.86200
C1878       C  0.83254334  0.65916450  0.70752412    -0.54100
C1879       C  0.81332395  0.68089537  0.72911222     0.09100
C1880       C  0.78942573  0.70485044  0.70692649     0.20000
C1881       C  0.78723355  0.65859501  0.66139911    -0.54800
C1882       C  0.76764180  0.67959334  0.68355154     0.09200
C1883       C  0.83059291  0.70448424  0.65880600    -0.54300
C1884       C  0.81176354  0.72648636  0.68063611     0.09800
H1885       H  0.85100827  0.64027389  0.71811826     0.14300
H1886       H  0.77461816  0.72168618  0.72340232     0.00000
H1887       H  0.77582274  0.64243459  0.64039392     0.14600
H1888       H  0.84705828  0.71471241  0.63765384     0.14400
C1889       C  0.82687567  0.82898473  0.66206336     0.86200
C1890       C  0.83142501  0.78775818  0.65690004    -0.54100
C1891       C  0.81214402  0.76717064  0.67965925     0.09100
C1892       C  0.78971630  0.79044808  0.70448665     0.20000
C1893       C  0.78790462  0.83350701  0.65616157    -0.54800
C1894       C  0.76814249  0.81406379  0.67934942     0.09200
C1895       C  0.83280438  0.83600022  0.70284978    -0.54300
C1896       C  0.81347016  0.81561175  0.72547744     0.09800
H1897       H  0.84808811  0.77622583  0.63655535     0.14300
H1898       H  0.77479572  0.77477117  0.72183789     0.00000
H1899       H  0.77666993  0.84746772  0.63355398     0.14600
H1900       H  0.85133797  0.85528803  0.71253261     0.14400
C1901       C  0.83219716  0.83308712  0.82823590     0.86200
C1902       C  0.79350449  0.84004844  0.83454311    -0.54100
C1903       C  0.77250684  0.81813577  0.81480968     0.09100
C1904       C  0.79281862  0.79247858  0.79039600     0.20000
C1905       C  0.83737361  0.79244248  0.83472773    -0.54800
C1906       C  0.81658788  0.77074441  0.81495426     0.09200
C1907       C  0.83537259  0.83845234  0.78658288    -0.54300
C1908       C  0.81516866  0.81636723  0.76639671     0.09800
H1909       H  0.78377911  0.86127405  0.85181259     0.14300
H1910       H  0.77708517  0.77579402  0.77505406     0.00000
H1911       H  0.85616291  0.78216402  0.85350718     0.14600
H1912       H  0.85108192  0.85899264  0.77434779     0.14400
C1913       C  0.61024532  0.60122921  0.90713235    -0.05700
C1914       C  0.62023236  0.63580389  0.91957748    -0.02800
C1915       C  0.64339068  0.65684123  0.89928932     0.02200
C1916       C  0.65490271  0.64508005  0.86474093    -0.05700
C1917       C  0.65064449  0.60801432  0.85664019    -0.02800
C1918       C  0.62798228  0.58658982  0.87704960     0.02200
C1919       C  0.60795571  0.64984717  0.95390568     0.36900
C1920       C  0.67145199  0.59087588  0.82900948     0.36900
C1921       C  0.62469023  0.54887159  0.86784507     0.35300
C1922       C  0.65822980  0.68824204  0.91640664     0.35300
N1923       N  0.62264986  0.51873880  0.86045714    -0.39500
N1924       N  0.67012199  0.71304165  0.93045473    -0.39500
N1925       N  0.68822524  0.57707908  0.80726377    -0.39000
N1926       N  0.59854683  0.66125334  0.98133904    -0.39000
C1927       C  0.59903742  0.89513952  0.60291327    -0.05700
C1928       C  0.58821693  0.87770164  0.63466450    -0.02800
C1929       C  0.61044753  0.85435502  0.65319949     0.02200
C1930       C  0.64487483  0.85018030  0.64166624    -0.05700
C1931       C  0.65365224  0.86404966  0.60693179    -0.02800
C1932       C  0.63148189  0.88773841  0.58874194     0.02200
C1933       C  0.55361147  0.88268789  0.64752794     0.36900
C1934       C  0.68290381  0.85073167  0.58711115     0.36900
C1935       C  0.64220434  0.90485431  0.55532633     0.35300
C1936       C  0.59669532  0.83275501  0.68247063     0.35300
N1937       N  0.65079162  0.91878215  0.52886684    -0.39500
N1938       N  0.58548255  0.81550020  0.70562304    -0.39500
N1939       N  0.70595949  0.84018598  0.57071413    -0.39000
N1940       N  0.52604976  0.88670332  0.65776099    -0.39000
C1941       C  0.85098480  0.63961036  0.64465723    -0.05700
C1942       C  0.84123598  0.60603766  0.62917513    -0.02800
C1943       C  0.86365832  0.58741347  0.60597112     0.02200
C1944       C  0.89718562  0.59928070  0.60128347    -0.05700
C1945       C  0.90861060  0.62975809  0.62015488    -0.02800
C1946       C  0.88602631  0.64938270  0.64230416     0.02200
C1947       C  0.81058537  0.58746292  0.64023904     0.36900
C1948       C  0.94398301  0.64055793  0.61735029     0.36900
C1949       C  0.89982783  0.67842652  0.66411722     0.35900
C1950       C  0.85182958  0.55640844  0.58592635     0.35300
N1951       N  0.91100350  0.70152395  0.68140502    -0.39500
N1952       N  0.84201576  0.53224828  0.56929628    -0.39500
N1953       N  0.97213576  0.64921175  0.61505757    -0.39000
N1954       N  0.78648161  0.57180389  0.64879992    -0.39000
C1955       C  0.64446291  0.64172727  0.64888316    -0.05700
C1956       C  0.65210993  0.63162312  0.61249174    -0.02800
C1957       C  0.62945955  0.60977819  0.59261206     0.02200
C1958       C  0.59796243  0.59972384  0.60761155    -0.05700
C1959       C  0.58807846  0.61396304  0.64138226    -0.02800
C1960       C  0.61042961  0.63628065  0.66100210     0.02200
C1961       C  0.68091135  0.64696407  0.59346387     0.36900
C1962       C  0.55384954  0.60794396  0.65481320     0.36900
C1963       C  0.59662410  0.65686680  0.69109964     0.35300
C1964       C  0.63828223  0.59819339  0.55620192     0.35300
N1965       N  0.58544873  0.67351720  0.71481681    -0.39500
N1966       N  0.64512838  0.58902115  0.52712442    -0.39500
N1967       N  0.52658143  0.60350338  0.66568029    -0.39000
N1968       N  0.70361476  0.65939303  0.57796841    -0.39000
C1969       C  0.90288883  0.89776295  0.89366854    -0.05700
C1970       C  0.91296053  0.88466065  0.85948093    -0.02800
C1971       C  0.89110101  0.86217696  0.83935307     0.02200
C1972       C  0.85734834  0.85517908  0.85162197    -0.05700
C1973       C  0.84988091  0.86374173  0.88841471    -0.02800
C1974       C  0.87195277  0.88591432  0.90873124     0.02200
C1975       C  0.94709307  0.89180277  0.84628335     0.36900
C1976       C  0.82187916  0.84647373  0.90710494     0.36900
C1977       C  0.86311914  0.89592648  0.94559002     0.35300
C1978       C  0.90535215  0.84289264  0.80864115     0.35300
N1979       N  0.85618762  0.90379079  0.97503010    -0.39500
N1980       N  0.91698136  0.82736593  0.78440288    -0.39500
N1981       N  0.79986020  0.83229885  0.92218144    -0.39000
N1982       N  0.97437310  0.89716494  0.83587879    -0.39000
C1983       C  0.90333748  0.60202857  0.89487563    -0.05700
C1984       C  0.91373142  0.63511091  0.88021700    -0.02800
C1985       C  0.89158402  0.65484536  0.85778875     0.02200
C1986       C  0.85708614  0.64397429  0.85332600    -0.05700
C1987       C  0.84871122  0.60820509  0.86394389    -0.02800
C1988       C  0.87153029  0.58778124  0.88514645     0.02200
C1989       C  0.94806927  0.64793812  0.88651347     0.36900
C1990       C  0.81850459  0.59049223  0.85033415     0.36900
C1991       C  0.86250172  0.55171603  0.89657739     0.35300
C1992       C  0.90582477  0.68395116  0.83648257     0.35300
N1993       N  0.85549498  0.52287321  0.90552449    -0.39500
N1994       N  0.91734934  0.70692162  0.81932846    -0.39500
N1995       N  0.79459869  0.57591485  0.83954390    -0.39000
N1996       N  0.97542637  0.65817307  0.89147591    -0.39000
C1997       C  0.65480999  0.86096878  0.85553581    -0.05700
C1998       C  0.64055601  0.89330595  0.84216553    -0.02800
C1999       C  0.61488164  0.91114843  0.86172795     0.02200
C2000       C  0.60762004  0.90133523  0.89807401    -0.05700
C2001       C  0.62718340  0.87346350  0.91400729    -0.02800
C2002       C  0.65094153  0.85387323  0.89301326     0.02200
C2003       C  0.65498769  0.91121583  0.81080643     0.36900
C2004       C  0.62326559  0.86440434  0.95196192     0.36900
C2005       C  0.67302806  0.82802897  0.91069416     0.35300
C2006       C  0.59512137  0.93824985  0.84290269     0.35300
N2007       N  0.69095095  0.80762699  0.92460631    -0.39500
N2008       N  0.57923691  0.95936541  0.82735125    -0.39500
N2009       N  0.62039546  0.85650502  0.98210045    -0.39000
N2010       N  0.66657892  0.92569823  0.78598527    -0.39000
C2011       C  0.85152861  0.85216702  0.63914901    -0.05700
C2012       C  0.88669906  0.84265806  0.63732290    -0.02800
C2013       C  0.90933408  0.86193764  0.61496663     0.02200
C2014       C  0.89813265  0.89260584  0.59630324    -0.05700
C2015       C  0.86424208  0.90378759  0.59975378    -0.02800
C2016       C  0.84152411  0.88509937  0.62245634     0.02200
C2017       C  0.90068783  0.81477922  0.66041991     0.36900
C2018       C  0.85215165  0.93387153  0.57854012     0.36900
C2019       C  0.80984885  0.90302071  0.63135320     0.35300
C2020       C  0.94442404  0.85029969  0.61131829     0.35300
N2021       N  0.78479639  0.91803257  0.63795716    -0.39500
N2022       N  0.97228466  0.84083574  0.60802544    -0.39500
N2023       N  0.84180322  0.95705378  0.56094260    -0.39000
N2024       N  0.91203916  0.79281128  0.67897148    -0.39000
loop_ 
_geom_bond_atom_site_label_1 
_geom_bond_atom_site_label_2 
_geom_bond_distance 
_geom_bond_site_symmetry_2 
_ccdc_geom_bond_type 
N1            N2   1.321       .  A
N1            N7   1.316       .  A
N1         Mn536   2.208       .  S
N2            C9   1.353       .  A
N3            N5   1.317       .  A
N3            N4   1.319       .  A
N3          Mn19   2.197   1_554  S
N4           C10   1.350       .  A
N5            N6   1.321       .  A
N5        Mn1548   2.207   1_455  S
N6           C10   1.353       .  A
N7            N8   1.320       .  A
N7        Mn1031   2.196   1_554  S
N8            C9   1.350       .  A
C9          C243   1.479       .  S
C10         C156   1.479       .  S
N11          N17   1.313       .  A
N11          N12   1.316       .  A
N11         Mn41   2.193       .  S
N12          C20   1.353       .  A
N13          N14   1.319       .  A
N13          N15   1.316       .  A
N13       Mn1284   2.196       .  S
N14          C21   1.351       .  A
N15          N16   1.323       .  A
N15       Mn1053   2.217       .  S
N16          C21   1.355       .  A
N17          N18   1.322       .  A
N17        Mn272   2.202       .  S
N18          C20   1.356       .  A
Mn19       N1019   2.196   1_456  S
Mn19       N1278   2.196   1_455  S
Mn19        N270   2.202       .  S
Mn19       Cl549   2.546       .  S
C20         C229   1.502       .  S
C21         C198   1.485       .  S
N22          N23   1.322       .  A
N22          N28   1.317       .  A
N22       Mn1042   2.211   1_445  S
N23          C31   1.354       .  A
N24          N26   1.317       .  A
N24          N25   1.320       .  A
N24        Mn295   2.200       .  S
N25          C32   1.351       .  A
N26          N27   1.320       .  A
N26         Mn30   2.201   1_545  S
N27          C32   1.351       .  A
N28          N29   1.319       .  A
N28       Mn1307   2.197       .  S
N29          C31   1.351       .  A
Mn30        N507   2.208       .  S
Mn30       N1523   2.207       .  S
Mn30       N1034   2.211   1_565  S
Mn30      Cl1055   2.550   1_554  S
C31         C187   1.483       .  S
C32         C173   1.476       .  S
N33          N34   1.320       .  A
N33          N39   1.316       .  A
N33       Mn1559   2.198       .  S
N34          C44   1.351       .  A
N35          N36   1.320       .  A
N35          N37   1.314       .  A
N35       Mn1054   2.200       .  S
N36          C45   1.355       .  A
N37          N38   1.322       .  A
N37        Mn547   2.216       .  S
N38          C45   1.358       .  A
N39          N40   1.321       .  A
N39         Mn42   2.207       .  S
N40          C44   1.353       .  A
Mn41       N1027   2.217   1_455  S
Mn41       N1551   2.198   1_455  S
Mn41        N543   2.216       .  S
Mn41       Cl802   2.547       .  S
Mn42        N277   2.200       .  S
Mn42       N1293   2.197       .  S
Mn42       N1047   2.200       .  S
Mn42      Cl1308   2.546   1_545  S
Cl43       Mn525   2.546       .  S
Cl43      Mn1042   2.550   1_456  S
Cl43       Mn800   2.547   1_565  S
Cl43      Mn1307   2.546   1_566  S
C44         C212   1.481       .  S
C45         C142   1.512       .  S
C46          C47   1.558       .  S
C46          C52   1.560       .  S
C46          C50   1.548       .  S
C46         C145   1.553       .  S
C47          H54   1.084       .  S
C47          C48   1.368       .  D
C48          C49   1.537       .  S
C48          C89   1.518       .  S
C49          C53   1.536       .  S
C49          C51   1.538       .  S
C49          H55   1.047       .  S
C50          H56   1.085       .  S
C50          C51   1.365       .  D
C51          C99   1.516       .  S
C52          H57   1.082       .  S
C52          C53   1.368       .  D
C53          C60   1.518       .  S
C58          C59   1.557       .  S
C58          C64   1.553       .  S
C58          C62   1.547       .  S
C58         C226   1.544       .  S
C59          H66   1.084       .  S
C59          C60   1.369       .  D
C60          C61   1.540       .  S
C61          C65   1.538       .  S
C61          C63   1.540       .  S
C61          H67   1.049       .  S
C62          H68   1.085       .  S
C62          C63   1.365       .  D
C63         C132   1.517       .  S
C64          H69   1.081       .  S
C64          C65   1.360       .  D
C65          C72   1.510       .  S
C70          C71   1.555       .  S
C70          C76   1.548       .  S
C70          C74   1.559       .  S
C70         C159   1.551       .  S
C71          H78   1.084       .  S
C71          C72   1.367       .  D
C72          C73   1.529       .  S
C73          C77   1.530       .  S
C73          C75   1.533       .  S
C73          H79   1.045       .  S
C74          H80   1.081       .  S
C74          C75   1.368       .  D
C75         C123   1.514       .  S
C76          H81   1.085       .  S
C76          C77   1.366       .  D
C77          C84   1.511       .  S
C82          C83   1.544       .  S
C82          C88   1.558       .  S
C82          C86   1.559       .  S
C82         C184   1.548       .  S
C83          H90   1.085       .  S
C83          C84   1.361       .  D
C84          C85   1.536       .  S
C85          C89   1.537       .  S
C85          C87   1.535       .  S
C85          H91   1.046       .  S
C86          H92   1.083       .  S
C86          C87   1.369       .  D
C87         C111   1.515       .  S
C88          H93   1.083       .  S
C88          C89   1.366       .  D
C94          C95   1.558       .  S
C94         C100   1.545       .  S
C94          C98   1.560       .  S
C94         C215   1.550       .  S
C95         H102   1.083       .  S
C95          C96   1.366       .  D
C96          C97   1.534       .  S
C96         C135   1.514       .  S
C97         C101   1.532       .  S
C97          C99   1.536       .  S
C97         H103   1.045       .  S
C98         H104   1.082       .  S
C98          C99   1.370       .  D
C100        H105   1.085       .  S
C100        C101   1.363       .  D
C101        C108   1.512       .  S
C106        C107   1.546       .  S
C106        C112   1.555       .  S
C106        C110   1.559       .  S
C106        C170   1.547       .  S
C107        H114   1.085       .  S
C107        C108   1.362       .  D
C108        C109   1.534       .  S
C109        C113   1.538       .  S
C109        C111   1.538       .  S
C109        H115   1.049       .  S
C110        H116   1.079       .  S
C110        C111   1.367       .  D
C112        H117   1.084       .  S
C112        C113   1.365       .  D
C113        C120   1.515       .  S
C118        C119   1.556       .  S
C118        C124   1.546       .  S
C118        C122   1.559       .  S
C118        C240   1.551       .  S
C119        H126   1.084       .  S
C119        C120   1.368       .  D
C120        C121   1.537       .  S
C121        C125   1.534       .  S
C121        C123   1.536       .  S
C121        H127   1.048       .  S
C122        H128   1.079       .  S
C122        C123   1.365       .  D
C124        H129   1.085       .  S
C124        C125   1.362       .  D
C125        C137   1.513       .  S
C130        C131   1.561       .  S
C130        C136   1.557       .  S
C130        C134   1.545       .  S
C130        C201   1.551       .  S
C131        H138   1.083       .  S
C131        C132   1.371       .  D
C132        C133   1.535       .  S
C133        C137   1.534       .  S
C133        C135   1.535       .  S
C133        H139   1.045       .  S
C134        H140   1.085       .  S
C134        C135   1.362       .  D
C136        H141   1.083       .  S
C136        C137   1.366       .  D
C142        C143   1.422       .  A
C142        C147   1.419       .  A
C143        C144   1.417       .  A
C143        C148   1.452       .  S
C144        C145   1.421       .  A
C144        C151   1.451       .  S
C145        C146   1.421       .  A
C146        C147   1.415       .  A
C146        C149   1.453       .  S
C147        C150   1.450       .  S
C148        N155   1.158       .  T
C149        N154   1.158       .  T
C150        N152   1.157       .  T
C151        N153   1.158       .  T
C156        C157   1.407       .  A
C156        C161   1.406       .  A
C157        C158   1.411       .  A
C157        C162   1.453       .  S
C158        C159   1.428       .  A
C158        C165   1.453       .  S
C159        C160   1.426       .  A
C160        C161   1.412       .  A
C160        C163   1.449       .  S
C161        C164   1.452       .  S
C162        N169   1.157       .  T
C163        N168   1.158       .  T
C164        N166   1.157       .  T
C165        N167   1.158       .  T
C170        C171   1.426       .  A
C170        C175   1.429       .  A
C171        C172   1.410       .  A
C171        C176   1.450       .  S
C172        C173   1.403       .  A
C172        C179   1.448       .  S
C173        C174   1.405       .  A
C174        C175   1.409       .  A
C174        C177   1.453       .  S
C175        C178   1.453       .  S
C176        N183   1.158       .  T
C177        N182   1.157       .  T
C178        N180   1.158       .  T
C179        N181   1.155       .  T
C184        C185   1.426       .  A
C184        C189   1.426       .  A
C185        C186   1.413       .  A
C185        C190   1.451       .  S
C186        C187   1.408       .  A
C186        C193   1.453       .  S
C187        C188   1.408       .  A
C188        C189   1.411       .  A
C188        C191   1.453       .  S
C189        C192   1.453       .  S
C190        N197   1.158       .  T
C191        N196   1.157       .  T
C192        N194   1.158       .  T
C193        N195   1.157       .  T
C198        C199   1.409       .  A
C198        C203   1.409       .  A
C199        C200   1.412       .  A
C199        C204   1.453       .  S
C200        C201   1.427       .  A
C200        C207   1.452       .  S
C201        C202   1.425       .  A
C202        C203   1.414       .  A
C202        C205   1.451       .  S
C203        C206   1.452       .  S
C204        N211   1.157       .  T
C205        N210   1.158       .  T
C206        N208   1.157       .  T
C207        N209   1.158       .  T
C212        C213   1.407       .  A
C212        C217   1.407       .  A
C213        C214   1.410       .  A
C213        C218   1.453       .  S
C214        C215   1.427       .  A
C214        C221   1.453       .  S
C215        C216   1.427       .  A
C216        C217   1.415       .  A
C216        C219   1.450       .  S
C217        C220   1.452       .  S
C218        N225   1.157       .  T
C219        N224   1.158       .  T
C220        N222   1.157       .  T
C221        N223   1.158       .  T
C226        C227   1.417       .  A
C226        C231   1.418       .  A
C227        C228   1.406       .  A
C227        C232   1.453       .  S
C228        C229   1.421       .  A
C228        C235   1.452       .  S
C229        C230   1.420       .  A
C230        C231   1.414       .  A
C230        C233   1.450       .  S
C231        C234   1.453       .  S
C232        N239   1.158       .  T
C233        N238   1.157       .  T
C234        N236   1.157       .  T
C235        N237   1.158       .  T
C240        C241   1.430       .  A
C240        C245   1.428       .  A
C241        C242   1.411       .  A
C241        C246   1.453       .  S
C242        C243   1.406       .  A
C242        C249   1.453       .  S
C243        C244   1.402       .  A
C244        C245   1.410       .  A
C244        C247   1.448       .  S
C245        C248   1.450       .  S
C246        N253   1.158       .  T
C247        N252   1.155       .  T
C248        N250   1.158       .  T
C249        N251   1.157       .  T
N254        N255   1.321       .  A
N254        N260   1.316       .  A
N254       Mn789   2.208       .  S
N255        C262   1.353       .  A
N256        N258   1.317       .  A
N256        N257   1.319       .  A
N256       Mn272   2.197       .  S
N257        C263   1.350       .  A
N258        N259   1.321       .  A
N258      Mn1801   2.207   1_455  S
N259        C263   1.353       .  A
N260        N261   1.320       .  A
N260      Mn1284   2.196       .  S
N261        C262   1.350       .  A
C262        C496   1.479       .  S
C263        C409   1.479       .  S
N264        N270   1.313       .  A
N264        N265   1.316       .  A
N264       Mn294   2.193       .  S
N265        C273   1.353       .  A
N266        N267   1.319       .  A
N266        N268   1.316       .  A
N266      Mn1031   2.196       .  S
N267        C274   1.351       .  A
N268        N269   1.323       .  A
N268      Mn1306   2.217       .  S
N269        C274   1.355       .  A
N270        N271   1.322       .  A
N271        C273   1.356       .  A
Mn272      N1272   2.196   1_455  S
Mn272      N1025   2.196   1_455  S
Mn272      Cl802   2.546       .  S
C273        C482   1.502       .  S
C274        C451   1.485       .  S
N275        N276   1.322       .  A
N275        N281   1.317       .  A
N275      Mn1295   2.211   1_445  S
N276        C284   1.354       .  A
N277        N279   1.317       .  A
N277        N278   1.320       .  A
N278        C285   1.351       .  A
N279        N280   1.320       .  A
N279       Mn283   2.201   1_545  S
N280        C285   1.351       .  A
N281        N282   1.319       .  A
N281      Mn1054   2.197       .  S
N282        C284   1.351       .  A
Mn283       N760   2.208       .  S
Mn283      N1776   2.207       .  S
Mn283      N1287   2.211   1_565  S
Mn283     Cl1308   2.550       .  S
C284        C440   1.483       .  S
C285        C426   1.476       .  S
N286        N287   1.320       .  A
N286        N292   1.316       .  A
N286      Mn1812   2.198       .  S
N287        C297   1.351       .  A
N288        N289   1.320       .  A
N288        N290   1.314       .  A
N288      Mn1307   2.200   1_556  S
N289        C298   1.355       .  A
N290        N291   1.322       .  A
N290       Mn800   2.216       .  S
N291        C298   1.358       .  A
N292        N293   1.321       .  A
N292       Mn295   2.207   1_556  S
N293        C297   1.353       .  A
Mn294      N1280   2.217   1_455  S
Mn294      N1804   2.198   1_455  S
Mn294       N796   2.216       .  S
Mn294      Cl549   2.547       .  S
Mn295      N1040   2.197       .  S
Mn295      N1300   2.200   1_554  S
Mn295     Cl1055   2.546   1_544  S
Cl296      Mn778   2.546       .  S
Cl296     Mn1295   2.550   1_455  S
Cl296      Mn547   2.547   1_565  S
Cl296     Mn1054   2.546   1_565  S
C297        C465   1.481       .  S
C298        C395   1.512       .  S
C299        C300   1.558       .  S
C299        C305   1.560       .  S
C299        C303   1.548       .  S
C299        C398   1.553       .  S
C300        H307   1.084       .  S
C300        C301   1.368       .  D
C301        C302   1.537       .  S
C301        C342   1.519       .  S
C302        C306   1.536       .  S
C302        C304   1.538       .  S
C302        H308   1.048       .  S
C303        H309   1.085       .  S
C303        C304   1.365       .  D
C304        C352   1.516       .  S
C305        H310   1.081       .  S
C305        C306   1.368       .  D
C306        C313   1.518       .  S
C311        C312   1.557       .  S
C311        C317   1.553       .  S
C311        C315   1.547       .  S
C311        C479   1.544       .  S
C312        H319   1.084       .  S
C312        C313   1.368       .  D
C313        C314   1.540       .  S
C314        C318   1.537       .  S
C314        C316   1.540       .  S
C314        H320   1.050       .  S
C315        H321   1.085       .  S
C315        C316   1.365       .  D
C316        C385   1.517       .  S
C317        H322   1.081       .  S
C317        C318   1.359       .  D
C318        C325   1.511       .  S
C323        C324   1.555       .  S
C323        C329   1.548       .  S
C323        C327   1.560       .  S
C323        C412   1.551       .  S
C324        H331   1.084       .  S
C324        C325   1.366       .  D
C325        C326   1.529       .  S
C326        C330   1.530       .  S
C326        C328   1.532       .  S
C326        H332   1.046       .  S
C327        H333   1.081       .  S
C327        C328   1.368       .  D
C328        C376   1.514       .  S
C329        H334   1.085       .  S
C329        C330   1.366       .  D
C330        C337   1.511       .  S
C335        C336   1.545       .  S
C335        C341   1.558       .  S
C335        C339   1.559       .  S
C335        C437   1.547       .  S
C336        H343   1.085       .  S
C336        C337   1.361       .  D
C337        C338   1.536       .  S
C338        C342   1.536       .  S
C338        C340   1.535       .  S
C338        H344   1.046       .  S
C339        H345   1.083       .  S
C339        C340   1.369       .  D
C340        C364   1.515       .  S
C341        H346   1.083       .  S
C341        C342   1.366       .  D
C347        C348   1.558       .  S
C347        C353   1.545       .  S
C347        C351   1.560       .  S
C347        C468   1.550       .  S
C348        H355   1.083       .  S
C348        C349   1.366       .  D
C349        C350   1.534       .  S
C349        C388   1.515       .  S
C350        C354   1.532       .  S
C350        C352   1.535       .  S
C350        H356   1.046       .  S
C351        H357   1.082       .  S
C351        C352   1.370       .  D
C353        H358   1.084       .  S
C353        C354   1.363       .  D
C354        C361   1.512       .  S
C359        C360   1.546       .  S
C359        C365   1.555       .  S
C359        C363   1.559       .  S
C359        C423   1.547       .  S
C360        H367   1.085       .  S
C360        C361   1.362       .  D
C361        C362   1.534       .  S
C362        C366   1.538       .  S
C362        C364   1.538       .  S
C362        H368   1.049       .  S
C363        H369   1.079       .  S
C363        C364   1.367       .  D
C365        H370   1.084       .  S
C365        C366   1.365       .  D
C366        C373   1.515       .  S
C371        C372   1.556       .  S
C371        C377   1.547       .  S
C371        C375   1.559       .  S
C371        C493   1.551       .  S
C372        H379   1.084       .  S
C372        C373   1.368       .  D
C373        C374   1.536       .  S
C374        C378   1.534       .  S
C374        C376   1.536       .  S
C374        H380   1.049       .  S
C375        H381   1.079       .  S
C375        C376   1.365       .  D
C377        H382   1.085       .  S
C377        C378   1.362       .  D
C378        C390   1.513       .  S
C383        C384   1.561       .  S
C383        C389   1.557       .  S
C383        C387   1.545       .  S
C383        C454   1.550       .  S
C384        H391   1.083       .  S
C384        C385   1.371       .  D
C385        C386   1.534       .  S
C386        C390   1.533       .  S
C386        C388   1.535       .  S
C386        H392   1.046       .  S
C387        H393   1.085       .  S
C387        C388   1.362       .  D
C389        H394   1.083       .  S
C389        C390   1.366       .  D
C395        C396   1.422       .  A
C395        C400   1.419       .  A
C396        C397   1.417       .  A
C396        C401   1.452       .  S
C397        C398   1.421       .  A
C397        C404   1.451       .  S
C398        C399   1.421       .  A
C399        C400   1.415       .  A
C399        C402   1.453       .  S
C400        C403   1.450       .  S
C401        N408   1.158       .  T
C402        N407   1.158       .  T
C403        N405   1.157       .  T
C404        N406   1.158       .  T
C409        C410   1.407       .  A
C409        C414   1.406       .  A
C410        C411   1.411       .  A
C410        C415   1.453       .  S
C411        C412   1.428       .  A
C411        C418   1.453       .  S
C412        C413   1.426       .  A
C413        C414   1.412       .  A
C413        C416   1.449       .  S
C414        C417   1.452       .  S
C415        N422   1.157       .  T
C416        N421   1.158       .  T
C417        N419   1.157       .  T
C418        N420   1.158       .  T
C423        C424   1.426       .  A
C423        C428   1.429       .  A
C424        C425   1.410       .  A
C424        C429   1.450       .  S
C425        C426   1.403       .  A
C425        C432   1.448       .  S
C426        C427   1.405       .  A
C427        C428   1.409       .  A
C427        C430   1.453       .  S
C428        C431   1.453       .  S
C429        N436   1.158       .  T
C430        N435   1.157       .  T
C431        N433   1.158       .  T
C432        N434   1.155       .  T
C437        C438   1.426       .  A
C437        C442   1.426       .  A
C438        C439   1.413       .  A
C438        C443   1.451       .  S
C439        C440   1.408       .  A
C439        C446   1.453       .  S
C440        C441   1.408       .  A
C441        C442   1.411       .  A
C441        C444   1.453       .  S
C442        C445   1.453       .  S
C443        N450   1.158       .  T
C444        N449   1.157       .  T
C445        N447   1.158       .  T
C446        N448   1.157       .  T
C451        C452   1.409       .  A
C451        C456   1.409       .  A
C452        C453   1.412       .  A
C452        C457   1.453       .  S
C453        C454   1.427       .  A
C453        C460   1.452       .  S
C454        C455   1.425       .  A
C455        C456   1.414       .  A
C455        C458   1.451       .  S
C456        C459   1.452       .  S
C457        N464   1.157       .  T
C458        N463   1.158       .  T
C459        N461   1.157       .  T
C460        N462   1.158       .  T
C465        C466   1.407       .  A
C465        C470   1.407       .  A
C466        C467   1.410       .  A
C466        C471   1.453       .  S
C467        C468   1.427       .  A
C467        C474   1.453       .  S
C468        C469   1.427       .  A
C469        C470   1.415       .  A
C469        C472   1.450       .  S
C470        C473   1.452       .  S
C471        N478   1.157       .  T
C472        N477   1.158       .  T
C473        N475   1.157       .  T
C474        N476   1.158       .  T
C479        C480   1.417       .  A
C479        C484   1.418       .  A
C480        C481   1.406       .  A
C480        C485   1.453       .  S
C481        C482   1.421       .  A
C481        C488   1.452       .  S
C482        C483   1.420       .  A
C483        C484   1.414       .  A
C483        C486   1.450       .  S
C484        C487   1.453       .  S
C485        N492   1.158       .  T
C486        N491   1.157       .  T
C487        N489   1.157       .  T
C488        N490   1.158       .  T
C493        C494   1.430       .  A
C493        C498   1.428       .  A
C494        C495   1.411       .  A
C494        C499   1.453       .  S
C495        C496   1.406       .  A
C495        C502   1.453       .  S
C496        C497   1.402       .  A
C497        C498   1.410       .  A
C497        C500   1.448       .  S
C498        C501   1.450       .  S
C499        N506   1.158       .  T
C500        N505   1.155       .  T
C501        N503   1.158       .  T
C502        N504   1.157       .  T
N507        N508   1.321       .  A
N507        N513   1.316       .  A
N508        C515   1.353       .  A
N509        N511   1.317       .  A
N509        N510   1.319       .  A
N509       Mn525   2.197   1_554  S
N510        C516   1.350       .  A
N511        N512   1.321       .  A
N511      Mn1042   2.207   1_455  S
N512        C516   1.353       .  A
N513        N514   1.320       .  A
N513      Mn1537   2.196   1_554  S
N514        C515   1.350       .  A
C515        C749   1.479       .  S
C516        C662   1.479       .  S
N517        N523   1.313       .  A
N517        N518   1.316       .  A
N517       Mn547   2.193   1_565  S
N518        C526   1.353       .  A
N519        N520   1.319       .  A
N519        N521   1.316       .  A
N519      Mn1790   2.196       .  S
N520        C527   1.351       .  A
N521        N522   1.323       .  A
N521      Mn1559   2.217   1_565  S
N522        C527   1.355       .  A
N523        N524   1.322       .  A
N523       Mn778   2.202       .  S
N524        C526   1.356       .  A
Mn525      N1525   2.196   1_456  S
Mn525      N1784   2.196   1_455  S
Mn525       N776   2.202       .  S
C526        C735   1.502       .  S
C527        C704   1.485       .  S
N528        N529   1.322       .  A
N528        N534   1.317       .  A
N528      Mn1548   2.211   1_455  S
N529        C537   1.354       .  A
N530        N532   1.317       .  A
N530        N531   1.320       .  A
N530       Mn801   2.200       .  S
N531        C538   1.351       .  A
N532        N533   1.320       .  A
N532       Mn536   2.201       .  S
N533        C538   1.351       .  A
N534        N535   1.319       .  A
N534      Mn1813   2.197       .  S
N535        C537   1.351       .  A
Mn536      N1017   2.207       .  S
Mn536      N1540   2.211       .  S
Mn536     Cl1561   2.550   1_554  S
C537        C693   1.483       .  S
C538        C679   1.476       .  S
N539        N540   1.320       .  A
N539        N545   1.316       .  A
N539      Mn1053   2.198       .  S
N540        C550   1.351       .  A
N541        N542   1.320       .  A
N541        N543   1.314       .  A
N541      Mn1560   2.200       .  S
N542        C551   1.355       .  A
N543        N544   1.322       .  A
N544        C551   1.358       .  A
N545        N546   1.321       .  A
N545       Mn548   2.207       .  S
N546        C550   1.353       .  A
Mn547      N1533   2.217   1_445  S
Mn547      N1045   2.198   1_455  S
Mn548       N783   2.200       .  S
Mn548      N1799   2.197       .  S
Mn548      N1553   2.200       .  S
Mn548     Cl1814   2.546       .  S
Cl549     Mn1548   2.550   1_456  S
Cl549     Mn1813   2.546   1_556  S
C550        C718   1.481       .  S
C551        C648   1.512       .  S
C552        C553   1.558       .  S
C552        C558   1.560       .  S
C552        C556   1.548       .  S
C552        C651   1.553       .  S
C553        H560   1.084       .  S
C553        C554   1.368       .  D
C554        C555   1.537       .  S
C554        C595   1.518       .  S
C555        C559   1.536       .  S
C555        C557   1.538       .  S
C555        H561   1.047       .  S
C556        H562   1.085       .  S
C556        C557   1.365       .  D
C557        C605   1.516       .  S
C558        H563   1.082       .  S
C558        C559   1.368       .  D
C559        C566   1.518       .  S
C564        C565   1.557       .  S
C564        C570   1.553       .  S
C564        C568   1.547       .  S
C564        C732   1.544       .  S
C565        H572   1.084       .  S
C565        C566   1.369       .  D
C566        C567   1.540       .  S
C567        C571   1.538       .  S
C567        C569   1.540       .  S
C567        H573   1.049       .  S
C568        H574   1.085       .  S
C568        C569   1.365       .  D
C569        C638   1.517       .  S
C570        H575   1.081       .  S
C570        C571   1.360       .  D
C571        C578   1.510       .  S
C576        C577   1.555       .  S
C576        C582   1.548       .  S
C576        C580   1.559       .  S
C576        C665   1.551       .  S
C577        H584   1.084       .  S
C577        C578   1.367       .  D
C578        C579   1.530       .  S
C579        C583   1.530       .  S
C579        C581   1.533       .  S
C579        H585   1.044       .  S
C580        H586   1.081       .  S
C580        C581   1.368       .  D
C581        C629   1.514       .  S
C582        H587   1.085       .  S
C582        C583   1.366       .  D
C583        C590   1.511       .  S
C588        C589   1.544       .  S
C588        C594   1.558       .  S
C588        C592   1.559       .  S
C588        C690   1.548       .  S
C589        H596   1.085       .  S
C589        C590   1.361       .  D
C590        C591   1.536       .  S
C591        C595   1.537       .  S
C591        C593   1.535       .  S
C591        H597   1.045       .  S
C592        H598   1.083       .  S
C592        C593   1.369       .  D
C593        C617   1.515       .  S
C594        H599   1.083       .  S
C594        C595   1.366       .  D
C600        C601   1.558       .  S
C600        C606   1.545       .  S
C600        C604   1.560       .  S
C600        C721   1.550       .  S
C601        H608   1.083       .  S
C601        C602   1.366       .  D
C602        C603   1.534       .  S
C602        C641   1.514       .  S
C603        C607   1.533       .  S
C603        C605   1.536       .  S
C603        H609   1.044       .  S
C604        H610   1.082       .  S
C604        C605   1.370       .  D
C606        H611   1.085       .  S
C606        C607   1.363       .  D
C607        C614   1.512       .  S
C612        C613   1.546       .  S
C612        C618   1.555       .  S
C612        C616   1.559       .  S
C612        C676   1.547       .  S
C613        H620   1.085       .  S
C613        C614   1.362       .  D
C614        C615   1.535       .  S
C615        C619   1.538       .  S
C615        C617   1.538       .  S
C615        H621   1.048       .  S
C616        H622   1.080       .  S
C616        C617   1.367       .  D
C618        H623   1.084       .  S
C618        C619   1.365       .  D
C619        C626   1.515       .  S
C624        C625   1.556       .  S
C624        C630   1.546       .  S
C624        C628   1.559       .  S
C624        C746   1.551       .  S
C625        H632   1.084       .  S
C625        C626   1.368       .  D
C626        C627   1.537       .  S
C627        C631   1.534       .  S
C627        C629   1.536       .  S
C627        H633   1.047       .  S
C628        H634   1.079       .  S
C628        C629   1.365       .  D
C630        H635   1.085       .  S
C630        C631   1.362       .  D
C631        C643   1.513       .  S
C636        C637   1.561       .  S
C636        C642   1.557       .  S
C636        C640   1.545       .  S
C636        C707   1.551       .  S
C637        H644   1.083       .  S
C637        C638   1.371       .  D
C638        C639   1.535       .  S
C639        C643   1.534       .  S
C639        C641   1.535       .  S
C639        H645   1.045       .  S
C640        H646   1.085       .  S
C640        C641   1.362       .  D
C642        H647   1.083       .  S
C642        C643   1.366       .  D
C648        C649   1.422       .  A
C648        C653   1.419       .  A
C649        C650   1.417       .  A
C649        C654   1.452       .  S
C650        C651   1.421       .  A
C650        C657   1.451       .  S
C651        C652   1.421       .  A
C652        C653   1.415       .  A
C652        C655   1.453       .  S
C653        C656   1.450       .  S
C654        N661   1.158       .  T
C655        N660   1.158       .  T
C656        N658   1.157       .  T
C657        N659   1.158       .  T
C662        C663   1.407       .  A
C662        C667   1.406       .  A
C663        C664   1.411       .  A
C663        C668   1.453       .  S
C664        C665   1.428       .  A
C664        C671   1.453       .  S
C665        C666   1.426       .  A
C666        C667   1.412       .  A
C666        C669   1.449       .  S
C667        C670   1.452       .  S
C668        N675   1.157       .  T
C669        N674   1.158       .  T
C670        N672   1.157       .  T
C671        N673   1.158       .  T
C676        C677   1.426       .  A
C676        C681   1.429       .  A
C677        C678   1.410       .  A
C677        C682   1.450       .  S
C678        C679   1.403       .  A
C678        C685   1.448       .  S
C679        C680   1.405       .  A
C680        C681   1.409       .  A
C680        C683   1.453       .  S
C681        C684   1.453       .  S
C682        N689   1.158       .  T
C683        N688   1.157       .  T
C684        N686   1.158       .  T
C685        N687   1.155       .  T
C690        C691   1.426       .  A
C690        C695   1.426       .  A
C691        C692   1.413       .  A
C691        C696   1.451       .  S
C692        C693   1.408       .  A
C692        C699   1.453       .  S
C693        C694   1.408       .  A
C694        C695   1.411       .  A
C694        C697   1.453       .  S
C695        C698   1.453       .  S
C696        N703   1.158       .  T
C697        N702   1.157       .  T
C698        N700   1.158       .  T
C699        N701   1.157       .  T
C704        C705   1.409       .  A
C704        C709   1.409       .  A
C705        C706   1.412       .  A
C705        C710   1.453       .  S
C706        C707   1.427       .  A
C706        C713   1.452       .  S
C707        C708   1.425       .  A
C708        C709   1.414       .  A
C708        C711   1.451       .  S
C709        C712   1.452       .  S
C710        N717   1.157       .  T
C711        N716   1.158       .  T
C712        N714   1.157       .  T
C713        N715   1.158       .  T
C718        C719   1.407       .  A
C718        C723   1.407       .  A
C719        C720   1.410       .  A
C719        C724   1.453       .  S
C720        C721   1.427       .  A
C720        C727   1.453       .  S
C721        C722   1.427       .  A
C722        C723   1.415       .  A
C722        C725   1.450       .  S
C723        C726   1.452       .  S
C724        N731   1.157       .  T
C725        N730   1.158       .  T
C726        N728   1.157       .  T
C727        N729   1.158       .  T
C732        C733   1.417       .  A
C732        C737   1.418       .  A
C733        C734   1.406       .  A
C733        C738   1.453       .  S
C734        C735   1.421       .  A
C734        C741   1.452       .  S
C735        C736   1.420       .  A
C736        C737   1.414       .  A
C736        C739   1.450       .  S
C737        C740   1.453       .  S
C738        N745   1.158       .  T
C739        N744   1.157       .  T
C740        N742   1.157       .  T
C741        N743   1.158       .  T
C746        C747   1.430       .  A
C746        C751   1.428       .  A
C747        C748   1.411       .  A
C747        C752   1.453       .  S
C748        C749   1.406       .  A
C748        C755   1.453       .  S
C749        C750   1.402       .  A
C750        C751   1.410       .  A
C750        C753   1.448       .  S
C751        C754   1.450       .  S
C752        N759   1.158       .  T
C753        N758   1.155       .  T
C754        N756   1.158       .  T
C755        N757   1.157       .  T
N760        N761   1.321       .  A
N760        N766   1.316       .  A
N761        C768   1.353       .  A
N762        N764   1.317       .  A
N762        N763   1.319       .  A
N762       Mn778   2.197       .  S
N763        C769   1.350       .  A
N764        N765   1.321       .  A
N764      Mn1295   2.207   1_455  S
N765        C769   1.353       .  A
N766        N767   1.320       .  A
N766      Mn1790   2.196       .  S
N767        C768   1.350       .  A
C768       C1002   1.479       .  S
C769        C915   1.479       .  S
N770        N776   1.313       .  A
N770        N771   1.316       .  A
N770       Mn800   2.193   1_565  S
N771        C779   1.353       .  A
N772        N773   1.319       .  A
N772        N774   1.316       .  A
N772      Mn1537   2.196       .  S
N773        C780   1.351       .  A
N774        N775   1.323       .  A
N774      Mn1812   2.217   1_565  S
N775        C780   1.355       .  A
N776        N777   1.322       .  A
N777        C779   1.356       .  A
Mn778      N1778   2.196   1_455  S
Mn778      N1531   2.196   1_455  S
C779        C988   1.502       .  S
C780        C957   1.485       .  S
N781        N782   1.322       .  A
N781        N787   1.317       .  A
N781      Mn1801   2.211   1_455  S
N782        C790   1.354       .  A
N783        N785   1.317       .  A
N783        N784   1.320       .  A
N784        C791   1.351       .  A
N785        N786   1.320       .  A
N785       Mn789   2.201       .  S
N786        C791   1.351       .  A
N787        N788   1.319       .  A
N787      Mn1560   2.197       .  S
N788        C790   1.351       .  A
Mn789      N1270   2.207       .  S
Mn789      N1793   2.211       .  S
Mn789     Cl1814   2.550       .  S
C790        C946   1.483       .  S
C791        C932   1.476       .  S
N792        N793   1.320       .  A
N792        N798   1.316       .  A
N792      Mn1306   2.198       .  S
N793        C803   1.351       .  A
N794        N795   1.320       .  A
N794        N796   1.314       .  A
N794      Mn1813   2.200   1_556  S
N795        C804   1.355       .  A
N796        N797   1.322       .  A
N797        C804   1.358       .  A
N798        N799   1.321       .  A
N798       Mn801   2.207   1_556  S
N799        C803   1.353       .  A
Mn800      N1786   2.217   1_445  S
Mn800      N1298   2.198   1_455  S
Mn801      N1546   2.197       .  S
Mn801      N1806   2.200   1_554  S
Mn801     Cl1561   2.546   1_554  S
Cl802     Mn1801   2.550   1_455  S
Cl802     Mn1560   2.546       .  S
C803        C971   1.481       .  S
C804        C901   1.512       .  S
C805        C806   1.558       .  S
C805        C811   1.560       .  S
C805        C809   1.548       .  S
C805        C904   1.553       .  S
C806        H813   1.084       .  S
C806        C807   1.368       .  D
C807        C808   1.537       .  S
C807        C848   1.518       .  S
C808        C812   1.536       .  S
C808        C810   1.538       .  S
C808        H814   1.047       .  S
C809        H815   1.085       .  S
C809        C810   1.365       .  D
C810        C858   1.516       .  S
C811        H816   1.082       .  S
C811        C812   1.368       .  D
C812        C819   1.518       .  S
C817        C818   1.557       .  S
C817        C823   1.553       .  S
C817        C821   1.547       .  S
C817        C985   1.544       .  S
C818        H825   1.084       .  S
C818        C819   1.369       .  D
C819        C820   1.540       .  S
C820        C824   1.538       .  S
C820        C822   1.540       .  S
C820        H826   1.049       .  S
C821        H827   1.085       .  S
C821        C822   1.365       .  D
C822        C891   1.517       .  S
C823        H828   1.081       .  S
C823        C824   1.360       .  D
C824        C831   1.510       .  S
C829        C830   1.555       .  S
C829        C835   1.548       .  S
C829        C833   1.559       .  S
C829        C918   1.551       .  S
C830        H837   1.084       .  S
C830        C831   1.367       .  D
C831        C832   1.530       .  S
C832        C836   1.530       .  S
C832        C834   1.533       .  S
C832        H838   1.044       .  S
C833        H839   1.081       .  S
C833        C834   1.368       .  D
C834        C882   1.514       .  S
C835        H840   1.085       .  S
C835        C836   1.366       .  D
C836        C843   1.511       .  S
C841        C842   1.544       .  S
C841        C847   1.558       .  S
C841        C845   1.559       .  S
C841        C943   1.548       .  S
C842        H849   1.085       .  S
C842        C843   1.361       .  D
C843        C844   1.536       .  S
C844        C848   1.537       .  S
C844        C846   1.535       .  S
C844        H850   1.045       .  S
C845        H851   1.083       .  S
C845        C846   1.369       .  D
C846        C870   1.515       .  S
C847        H852   1.083       .  S
C847        C848   1.366       .  D
C853        C854   1.558       .  S
C853        C859   1.545       .  S
C853        C857   1.560       .  S
C853        C974   1.550       .  S
C854        H861   1.083       .  S
C854        C855   1.366       .  D
C855        C856   1.534       .  S
C855        C894   1.514       .  S
C856        C860   1.533       .  S
C856        C858   1.536       .  S
C856        H862   1.044       .  S
C857        H863   1.082       .  S
C857        C858   1.370       .  D
C859        H864   1.085       .  S
C859        C860   1.363       .  D
C860        C867   1.512       .  S
C865        C866   1.546       .  S
C865        C871   1.555       .  S
C865        C869   1.559       .  S
C865        C929   1.547       .  S
C866        H873   1.085       .  S
C866        C867   1.362       .  D
C867        C868   1.534       .  S
C868        C872   1.538       .  S
C868        C870   1.538       .  S
C868        H874   1.048       .  S
C869        H875   1.080       .  S
C869        C870   1.367       .  D
C871        H876   1.084       .  S
C871        C872   1.365       .  D
C872        C879   1.515       .  S
C877        C878   1.556       .  S
C877        C883   1.546       .  S
C877        C881   1.559       .  S
C877        C999   1.551       .  S
C878        H885   1.084       .  S
C878        C879   1.368       .  D
C879        C880   1.537       .  S
C880        C884   1.534       .  S
C880        C882   1.536       .  S
C880        H886   1.047       .  S
C881        H887   1.079       .  S
C881        C882   1.365       .  D
C883        H888   1.085       .  S
C883        C884   1.362       .  D
C884        C896   1.513       .  S
C889        C890   1.561       .  S
C889        C895   1.557       .  S
C889        C893   1.545       .  S
C889        C960   1.551       .  S
C890        H897   1.083       .  S
C890        C891   1.371       .  D
C891        C892   1.535       .  S
C892        C896   1.534       .  S
C892        C894   1.535       .  S
C892        H898   1.045       .  S
C893        H899   1.085       .  S
C893        C894   1.362       .  D
C895        H900   1.083       .  S
C895        C896   1.366       .  D
C901        C902   1.422       .  A
C901        C906   1.419       .  A
C902        C903   1.417       .  A
C902        C907   1.452       .  S
C903        C904   1.421       .  A
C903        C910   1.451       .  S
C904        C905   1.421       .  A
C905        C906   1.415       .  A
C905        C908   1.453       .  S
C906        C909   1.450       .  S
C907        N914   1.158       .  T
C908        N913   1.158       .  T
C909        N911   1.157       .  T
C910        N912   1.158       .  T
C915        C916   1.407       .  A
C915        C920   1.406       .  A
C916        C917   1.411       .  A
C916        C921   1.453       .  S
C917        C918   1.428       .  A
C917        C924   1.453       .  S
C918        C919   1.426       .  A
C919        C920   1.412       .  A
C919        C922   1.449       .  S
C920        C923   1.452       .  S
C921        N928   1.157       .  T
C922        N927   1.158       .  T
C923        N925   1.157       .  T
C924        N926   1.158       .  T
C929        C930   1.426       .  A
C929        C934   1.429       .  A
C930        C931   1.410       .  A
C930        C935   1.450       .  S
C931        C932   1.403       .  A
C931        C938   1.448       .  S
C932        C933   1.405       .  A
C933        C934   1.409       .  A
C933        C936   1.453       .  S
C934        C937   1.453       .  S
C935        N942   1.158       .  T
C936        N941   1.157       .  T
C937        N939   1.158       .  T
C938        N940   1.155       .  T
C943        C944   1.426       .  A
C943        C948   1.426       .  A
C944        C945   1.413       .  A
C944        C949   1.451       .  S
C945        C946   1.408       .  A
C945        C952   1.453       .  S
C946        C947   1.408       .  A
C947        C948   1.411       .  A
C947        C950   1.453       .  S
C948        C951   1.453       .  S
C949        N956   1.158       .  T
C950        N955   1.157       .  T
C951        N953   1.158       .  T
C952        N954   1.157       .  T
C957        C958   1.409       .  A
C957        C962   1.409       .  A
C958        C959   1.412       .  A
C958        C963   1.453       .  S
C959        C960   1.427       .  A
C959        C966   1.452       .  S
C960        C961   1.425       .  A
C961        C962   1.414       .  A
C961        C964   1.451       .  S
C962        C965   1.452       .  S
C963        N970   1.157       .  T
C964        N969   1.158       .  T
C965        N967   1.157       .  T
C966        N968   1.158       .  T
C971        C972   1.407       .  A
C971        C976   1.407       .  A
C972        C973   1.410       .  A
C972        C977   1.453       .  S
C973        C974   1.427       .  A
C973        C980   1.453       .  S
C974        C975   1.427       .  A
C975        C976   1.415       .  A
C975        C978   1.450       .  S
C976        C979   1.452       .  S
C977        N984   1.157       .  T
C978        N983   1.158       .  T
C979        N981   1.157       .  T
C980        N982   1.158       .  T
C985        C986   1.417       .  A
C985        C990   1.418       .  A
C986        C987   1.406       .  A
C986        C991   1.453       .  S
C987        C988   1.421       .  A
C987        C994   1.452       .  S
C988        C989   1.420       .  A
C989        C990   1.414       .  A
C989        C992   1.450       .  S
C990        C993   1.453       .  S
C991        N998   1.158       .  T
C992        N997   1.157       .  T
C993        N995   1.157       .  T
C994        N996   1.158       .  T
C999       C1000   1.430       .  A
C999       C1004   1.428       .  A
C1000      C1001   1.411       .  A
C1000      C1005   1.453       .  S
C1001      C1002   1.406       .  A
C1001      C1008   1.453       .  S
C1002      C1003   1.402       .  A
C1003      C1004   1.410       .  A
C1003      C1006   1.448       .  S
C1004      C1007   1.450       .  S
C1005      N1012   1.158       .  T
C1006      N1011   1.155       .  T
C1007      N1009   1.158       .  T
C1008      N1010   1.157       .  T
N1013      N1014   1.321       .  A
N1013      N1019   1.316       .  A
N1013     Mn1548   2.208       .  S
N1014      C1021   1.353       .  A
N1015      N1017   1.317       .  A
N1015      N1016   1.319       .  A
N1015     Mn1031   2.197   1_554  S
N1016      C1022   1.350       .  A
N1017      N1018   1.321       .  A
N1018      C1022   1.353       .  A
N1019      N1020   1.320       .  A
N1020      C1021   1.350       .  A
C1021      C1255   1.479       .  S
C1022      C1168   1.479       .  S
N1023      N1029   1.313       .  A
N1023      N1024   1.316       .  A
N1023     Mn1053   2.193       .  S
N1024      C1032   1.353       .  A
N1025      N1026   1.319       .  A
N1025      N1027   1.316       .  A
N1026      C1033   1.351       .  A
N1027      N1028   1.323       .  A
N1028      C1033   1.355       .  A
N1029      N1030   1.322       .  A
N1029     Mn1284   2.202       .  S
N1030      C1032   1.356       .  A
Mn1031     N1282   2.202       .  S
Mn1031    Cl1561   2.546       .  S
C1032      C1241   1.502       .  S
C1033      C1210   1.485       .  S
N1034      N1035   1.322       .  A
N1034      N1040   1.317       .  A
N1035      C1043   1.354       .  A
N1036      N1038   1.317       .  A
N1036      N1037   1.320       .  A
N1036     Mn1307   2.200   1_655  S
N1037      C1044   1.351       .  A
N1038      N1039   1.320       .  A
N1038     Mn1042   2.201   1_545  S
N1039      C1044   1.351       .  A
N1040      N1041   1.319       .  A
N1041      C1043   1.351       .  A
Mn1042     N1519   2.208       .  S
C1043      C1199   1.483       .  S
C1044      C1185   1.476       .  S
N1045      N1046   1.320       .  A
N1045      N1051   1.316       .  A
N1046      C1056   1.351       .  A
N1047      N1048   1.320       .  A
N1047      N1049   1.314       .  A
N1048      C1057   1.355       .  A
N1049      N1050   1.322       .  A
N1049     Mn1559   2.216       .  S
N1050      C1057   1.358       .  A
N1051      N1052   1.321       .  A
N1051     Mn1054   2.207   1_655  S
N1052      C1056   1.353       .  A
Mn1053     N1555   2.216       .  S
Mn1053    Cl1814   2.547       .  S
Mn1054     N1289   2.200   1_455  S
Cl1055    Mn1537   2.546       .  S
Cl1055    Mn1812   2.547   1_565  S
C1056      C1224   1.481       .  S
C1057      C1154   1.512       .  S
C1058      C1059   1.558       .  S
C1058      C1064   1.560       .  S
C1058      C1062   1.548       .  S
C1058      C1157   1.553       .  S
C1059      H1066   1.084       .  S
C1059      C1060   1.368       .  D
C1060      C1061   1.537       .  S
C1060      C1101   1.518       .  S
C1061      C1065   1.536       .  S
C1061      C1063   1.538       .  S
C1061      H1067   1.047       .  S
C1062      H1068   1.085       .  S
C1062      C1063   1.365       .  D
C1063      C1111   1.516       .  S
C1064      H1069   1.082       .  S
C1064      C1065   1.368       .  D
C1065      C1072   1.518       .  S
C1070      C1071   1.557       .  S
C1070      C1076   1.553       .  S
C1070      C1074   1.547       .  S
C1070      C1238   1.544       .  S
C1071      H1078   1.084       .  S
C1071      C1072   1.369       .  D
C1072      C1073   1.540       .  S
C1073      C1077   1.538       .  S
C1073      C1075   1.540       .  S
C1073      H1079   1.049       .  S
C1074      H1080   1.085       .  S
C1074      C1075   1.365       .  D
C1075      C1144   1.517       .  S
C1076      H1081   1.081       .  S
C1076      C1077   1.360       .  D
C1077      C1084   1.510       .  S
C1082      C1083   1.555       .  S
C1082      C1088   1.548       .  S
C1082      C1086   1.559       .  S
C1082      C1171   1.551       .  S
C1083      H1090   1.084       .  S
C1083      C1084   1.367       .  D
C1084      C1085   1.530       .  S
C1085      C1089   1.530       .  S
C1085      C1087   1.533       .  S
C1085      H1091   1.044       .  S
C1086      H1092   1.081       .  S
C1086      C1087   1.368       .  D
C1087      C1135   1.514       .  S
C1088      H1093   1.085       .  S
C1088      C1089   1.366       .  D
C1089      C1096   1.511       .  S
C1094      C1095   1.544       .  S
C1094      C1100   1.558       .  S
C1094      C1098   1.559       .  S
C1094      C1196   1.548       .  S
C1095      H1102   1.085       .  S
C1095      C1096   1.361       .  D
C1096      C1097   1.536       .  S
C1097      C1101   1.537       .  S
C1097      C1099   1.535       .  S
C1097      H1103   1.045       .  S
C1098      H1104   1.083       .  S
C1098      C1099   1.369       .  D
C1099      C1123   1.515       .  S
C1100      H1105   1.083       .  S
C1100      C1101   1.366       .  D
C1106      C1107   1.558       .  S
C1106      C1112   1.545       .  S
C1106      C1110   1.560       .  S
C1106      C1227   1.550       .  S
C1107      H1114   1.083       .  S
C1107      C1108   1.366       .  D
C1108      C1109   1.534       .  S
C1108      C1147   1.514       .  S
C1109      C1113   1.533       .  S
C1109      C1111   1.536       .  S
C1109      H1115   1.044       .  S
C1110      H1116   1.082       .  S
C1110      C1111   1.370       .  D
C1112      H1117   1.085       .  S
C1112      C1113   1.363       .  D
C1113      C1120   1.512       .  S
C1118      C1119   1.546       .  S
C1118      C1124   1.555       .  S
C1118      C1122   1.559       .  S
C1118      C1182   1.547       .  S
C1119      H1126   1.085       .  S
C1119      C1120   1.362       .  D
C1120      C1121   1.534       .  S
C1121      C1125   1.538       .  S
C1121      C1123   1.538       .  S
C1121      H1127   1.048       .  S
C1122      H1128   1.080       .  S
C1122      C1123   1.367       .  D
C1124      H1129   1.084       .  S
C1124      C1125   1.365       .  D
C1125      C1132   1.515       .  S
C1130      C1131   1.556       .  S
C1130      C1136   1.546       .  S
C1130      C1134   1.559       .  S
C1130      C1252   1.551       .  S
C1131      H1138   1.084       .  S
C1131      C1132   1.368       .  D
C1132      C1133   1.537       .  S
C1133      C1137   1.534       .  S
C1133      C1135   1.536       .  S
C1133      H1139   1.047       .  S
C1134      H1140   1.079       .  S
C1134      C1135   1.365       .  D
C1136      H1141   1.085       .  S
C1136      C1137   1.362       .  D
C1137      C1149   1.513       .  S
C1142      C1143   1.561       .  S
C1142      C1148   1.557       .  S
C1142      C1146   1.545       .  S
C1142      C1213   1.551       .  S
C1143      H1150   1.083       .  S
C1143      C1144   1.371       .  D
C1144      C1145   1.535       .  S
C1145      C1149   1.534       .  S
C1145      C1147   1.535       .  S
C1145      H1151   1.045       .  S
C1146      H1152   1.085       .  S
C1146      C1147   1.362       .  D
C1148      H1153   1.083       .  S
C1148      C1149   1.366       .  D
C1154      C1155   1.422       .  A
C1154      C1159   1.419       .  A
C1155      C1156   1.417       .  A
C1155      C1160   1.452       .  S
C1156      C1157   1.421       .  A
C1156      C1163   1.451       .  S
C1157      C1158   1.421       .  A
C1158      C1159   1.415       .  A
C1158      C1161   1.453       .  S
C1159      C1162   1.450       .  S
C1160      N1167   1.158       .  T
C1161      N1166   1.158       .  T
C1162      N1164   1.157       .  T
C1163      N1165   1.158       .  T
C1168      C1169   1.407       .  A
C1168      C1173   1.406       .  A
C1169      C1170   1.411       .  A
C1169      C1174   1.453       .  S
C1170      C1171   1.428       .  A
C1170      C1177   1.453       .  S
C1171      C1172   1.426       .  A
C1172      C1173   1.412       .  A
C1172      C1175   1.449       .  S
C1173      C1176   1.452       .  S
C1174      N1181   1.157       .  T
C1175      N1180   1.158       .  T
C1176      N1178   1.157       .  T
C1177      N1179   1.158       .  T
C1182      C1183   1.426       .  A
C1182      C1187   1.429       .  A
C1183      C1184   1.410       .  A
C1183      C1188   1.450       .  S
C1184      C1185   1.403       .  A
C1184      C1191   1.448       .  S
C1185      C1186   1.405       .  A
C1186      C1187   1.409       .  A
C1186      C1189   1.453       .  S
C1187      C1190   1.453       .  S
C1188      N1195   1.158       .  T
C1189      N1194   1.157       .  T
C1190      N1192   1.158       .  T
C1191      N1193   1.155       .  T
C1196      C1197   1.426       .  A
C1196      C1201   1.426       .  A
C1197      C1198   1.413       .  A
C1197      C1202   1.451       .  S
C1198      C1199   1.408       .  A
C1198      C1205   1.453       .  S
C1199      C1200   1.408       .  A
C1200      C1201   1.411       .  A
C1200      C1203   1.453       .  S
C1201      C1204   1.453       .  S
C1202      N1209   1.158       .  T
C1203      N1208   1.157       .  T
C1204      N1206   1.158       .  T
C1205      N1207   1.157       .  T
C1210      C1211   1.409       .  A
C1210      C1215   1.409       .  A
C1211      C1212   1.412       .  A
C1211      C1216   1.453       .  S
C1212      C1213   1.427       .  A
C1212      C1219   1.452       .  S
C1213      C1214   1.425       .  A
C1214      C1215   1.414       .  A
C1214      C1217   1.451       .  S
C1215      C1218   1.452       .  S
C1216      N1223   1.157       .  T
C1217      N1222   1.158       .  T
C1218      N1220   1.157       .  T
C1219      N1221   1.158       .  T
C1224      C1225   1.407       .  A
C1224      C1229   1.407       .  A
C1225      C1226   1.410       .  A
C1225      C1230   1.453       .  S
C1226      C1227   1.427       .  A
C1226      C1233   1.453       .  S
C1227      C1228   1.427       .  A
C1228      C1229   1.415       .  A
C1228      C1231   1.450       .  S
C1229      C1232   1.452       .  S
C1230      N1237   1.157       .  T
C1231      N1236   1.158       .  T
C1232      N1234   1.157       .  T
C1233      N1235   1.158       .  T
C1238      C1239   1.417       .  A
C1238      C1243   1.418       .  A
C1239      C1240   1.406       .  A
C1239      C1244   1.453       .  S
C1240      C1241   1.421       .  A
C1240      C1247   1.452       .  S
C1241      C1242   1.420       .  A
C1242      C1243   1.414       .  A
C1242      C1245   1.450       .  S
C1243      C1246   1.453       .  S
C1244      N1251   1.158       .  T
C1245      N1250   1.157       .  T
C1246      N1248   1.157       .  T
C1247      N1249   1.158       .  T
C1252      C1253   1.430       .  A
C1252      C1257   1.428       .  A
C1253      C1254   1.411       .  A
C1253      C1258   1.453       .  S
C1254      C1255   1.406       .  A
C1254      C1261   1.453       .  S
C1255      C1256   1.402       .  A
C1256      C1257   1.410       .  A
C1256      C1259   1.448       .  S
C1257      C1260   1.450       .  S
C1258      N1265   1.158       .  T
C1259      N1264   1.155       .  T
C1260      N1262   1.158       .  T
C1261      N1263   1.157       .  T
N1266      N1267   1.321       .  A
N1266      N1272   1.316       .  A
N1266     Mn1801   2.208       .  S
N1267      C1274   1.353       .  A
N1268      N1270   1.317       .  A
N1268      N1269   1.319       .  A
N1268     Mn1284   2.197       .  S
N1269      C1275   1.350       .  A
N1270      N1271   1.321       .  A
N1271      C1275   1.353       .  A
N1272      N1273   1.320       .  A
N1273      C1274   1.350       .  A
C1274      C1508   1.479       .  S
C1275      C1421   1.479       .  S
N1276      N1282   1.313       .  A
N1276      N1277   1.316       .  A
N1276     Mn1306   2.193       .  S
N1277      C1285   1.353       .  A
N1278      N1279   1.319       .  A
N1278      N1280   1.316       .  A
N1279      C1286   1.351       .  A
N1280      N1281   1.323       .  A
N1281      C1286   1.355       .  A
N1282      N1283   1.322       .  A
N1283      C1285   1.356       .  A
Mn1284    Cl1814   2.546       .  S
C1285      C1494   1.502       .  S
C1286      C1463   1.485       .  S
N1287      N1288   1.322       .  A
N1287      N1293   1.317       .  A
N1288      C1296   1.354       .  A
N1289      N1291   1.317       .  A
N1289      N1290   1.320       .  A
N1290      C1297   1.351       .  A
N1291      N1292   1.320       .  A
N1291     Mn1295   2.201   1_545  S
N1292      C1297   1.351       .  A
N1293      N1294   1.319       .  A
N1294      C1296   1.351       .  A
Mn1295     N1772   2.208       .  S
C1296      C1452   1.483       .  S
C1297      C1438   1.476       .  S
N1298      N1299   1.320       .  A
N1298      N1304   1.316       .  A
N1299      C1309   1.351       .  A
N1300      N1301   1.320       .  A
N1300      N1302   1.314       .  A
N1301      C1310   1.355       .  A
N1302      N1303   1.322       .  A
N1302     Mn1812   2.216       .  S
N1303      C1310   1.358       .  A
N1304      N1305   1.321       .  A
N1304     Mn1307   2.207   1_656  S
N1305      C1309   1.353       .  A
Mn1306     N1808   2.216       .  S
Mn1306    Cl1561   2.547       .  S
Cl1308    Mn1790   2.546       .  S
Cl1308    Mn1559   2.547   1_565  S
C1309      C1477   1.481       .  S
C1310      C1407   1.512       .  S
C1311      C1312   1.558       .  S
C1311      C1317   1.560       .  S
C1311      C1315   1.548       .  S
C1311      C1410   1.553       .  S
C1312      H1319   1.084       .  S
C1312      C1313   1.368       .  D
C1313      C1314   1.537       .  S
C1313      C1354   1.518       .  S
C1314      C1318   1.536       .  S
C1314      C1316   1.538       .  S
C1314      H1320   1.047       .  S
C1315      H1321   1.085       .  S
C1315      C1316   1.365       .  D
C1316      C1364   1.516       .  S
C1317      H1322   1.082       .  S
C1317      C1318   1.368       .  D
C1318      C1325   1.518       .  S
C1323      C1324   1.557       .  S
C1323      C1329   1.553       .  S
C1323      C1327   1.547       .  S
C1323      C1491   1.544       .  S
C1324      H1331   1.084       .  S
C1324      C1325   1.369       .  D
C1325      C1326   1.540       .  S
C1326      C1330   1.538       .  S
C1326      C1328   1.540       .  S
C1326      H1332   1.049       .  S
C1327      H1333   1.085       .  S
C1327      C1328   1.365       .  D
C1328      C1397   1.517       .  S
C1329      H1334   1.081       .  S
C1329      C1330   1.360       .  D
C1330      C1337   1.510       .  S
C1335      C1336   1.555       .  S
C1335      C1341   1.548       .  S
C1335      C1339   1.559       .  S
C1335      C1424   1.551       .  S
C1336      H1343   1.084       .  S
C1336      C1337   1.367       .  D
C1337      C1338   1.530       .  S
C1338      C1342   1.530       .  S
C1338      C1340   1.533       .  S
C1338      H1344   1.044       .  S
C1339      H1345   1.081       .  S
C1339      C1340   1.368       .  D
C1340      C1388   1.514       .  S
C1341      H1346   1.085       .  S
C1341      C1342   1.366       .  D
C1342      C1349   1.511       .  S
C1347      C1348   1.544       .  S
C1347      C1353   1.558       .  S
C1347      C1351   1.559       .  S
C1347      C1449   1.548       .  S
C1348      H1355   1.085       .  S
C1348      C1349   1.361       .  D
C1349      C1350   1.536       .  S
C1350      C1354   1.537       .  S
C1350      C1352   1.535       .  S
C1350      H1356   1.045       .  S
C1351      H1357   1.083       .  S
C1351      C1352   1.369       .  D
C1352      C1376   1.515       .  S
C1353      H1358   1.083       .  S
C1353      C1354   1.366       .  D
C1359      C1360   1.558       .  S
C1359      C1365   1.545       .  S
C1359      C1363   1.560       .  S
C1359      C1480   1.550       .  S
C1360      H1367   1.083       .  S
C1360      C1361   1.366       .  D
C1361      C1362   1.534       .  S
C1361      C1400   1.514       .  S
C1362      C1366   1.533       .  S
C1362      C1364   1.536       .  S
C1362      H1368   1.044       .  S
C1363      H1369   1.082       .  S
C1363      C1364   1.370       .  D
C1365      H1370   1.085       .  S
C1365      C1366   1.363       .  D
C1366      C1373   1.512       .  S
C1371      C1372   1.546       .  S
C1371      C1377   1.555       .  S
C1371      C1375   1.559       .  S
C1371      C1435   1.547       .  S
C1372      H1379   1.085       .  S
C1372      C1373   1.362       .  D
C1373      C1374   1.534       .  S
C1374      C1378   1.538       .  S
C1374      C1376   1.538       .  S
C1374      H1380   1.048       .  S
C1375      H1381   1.080       .  S
C1375      C1376   1.367       .  D
C1377      H1382   1.084       .  S
C1377      C1378   1.365       .  D
C1378      C1385   1.515       .  S
C1383      C1384   1.556       .  S
C1383      C1389   1.546       .  S
C1383      C1387   1.559       .  S
C1383      C1505   1.551       .  S
C1384      H1391   1.084       .  S
C1384      C1385   1.368       .  D
C1385      C1386   1.537       .  S
C1386      C1390   1.534       .  S
C1386      C1388   1.536       .  S
C1386      H1392   1.047       .  S
C1387      H1393   1.079       .  S
C1387      C1388   1.365       .  D
C1389      H1394   1.085       .  S
C1389      C1390   1.362       .  D
C1390      C1402   1.513       .  S
C1395      C1396   1.561       .  S
C1395      C1401   1.557       .  S
C1395      C1399   1.545       .  S
C1395      C1466   1.551       .  S
C1396      H1403   1.083       .  S
C1396      C1397   1.371       .  D
C1397      C1398   1.535       .  S
C1398      C1402   1.534       .  S
C1398      C1400   1.535       .  S
C1398      H1404   1.045       .  S
C1399      H1405   1.085       .  S
C1399      C1400   1.362       .  D
C1401      H1406   1.083       .  S
C1401      C1402   1.366       .  D
C1407      C1408   1.422       .  A
C1407      C1412   1.419       .  A
C1408      C1409   1.417       .  A
C1408      C1413   1.452       .  S
C1409      C1410   1.421       .  A
C1409      C1416   1.451       .  S
C1410      C1411   1.421       .  A
C1411      C1412   1.415       .  A
C1411      C1414   1.453       .  S
C1412      C1415   1.450       .  S
C1413      N1420   1.158       .  T
C1414      N1419   1.158       .  T
C1415      N1417   1.157       .  T
C1416      N1418   1.158       .  T
C1421      C1422   1.407       .  A
C1421      C1426   1.406       .  A
C1422      C1423   1.411       .  A
C1422      C1427   1.453       .  S
C1423      C1424   1.428       .  A
C1423      C1430   1.453       .  S
C1424      C1425   1.426       .  A
C1425      C1426   1.412       .  A
C1425      C1428   1.449       .  S
C1426      C1429   1.452       .  S
C1427      N1434   1.157       .  T
C1428      N1433   1.158       .  T
C1429      N1431   1.157       .  T
C1430      N1432   1.158       .  T
C1435      C1436   1.426       .  A
C1435      C1440   1.429       .  A
C1436      C1437   1.410       .  A
C1436      C1441   1.450       .  S
C1437      C1438   1.403       .  A
C1437      C1444   1.448       .  S
C1438      C1439   1.405       .  A
C1439      C1440   1.409       .  A
C1439      C1442   1.453       .  S
C1440      C1443   1.453       .  S
C1441      N1448   1.158       .  T
C1442      N1447   1.157       .  T
C1443      N1445   1.158       .  T
C1444      N1446   1.155       .  T
C1449      C1450   1.426       .  A
C1449      C1454   1.426       .  A
C1450      C1451   1.413       .  A
C1450      C1455   1.451       .  S
C1451      C1452   1.408       .  A
C1451      C1458   1.453       .  S
C1452      C1453   1.408       .  A
C1453      C1454   1.411       .  A
C1453      C1456   1.453       .  S
C1454      C1457   1.453       .  S
C1455      N1462   1.158       .  T
C1456      N1461   1.157       .  T
C1457      N1459   1.158       .  T
C1458      N1460   1.157       .  T
C1463      C1464   1.409       .  A
C1463      C1468   1.409       .  A
C1464      C1465   1.412       .  A
C1464      C1469   1.453       .  S
C1465      C1466   1.427       .  A
C1465      C1472   1.452       .  S
C1466      C1467   1.425       .  A
C1467      C1468   1.414       .  A
C1467      C1470   1.451       .  S
C1468      C1471   1.452       .  S
C1469      N1476   1.157       .  T
C1470      N1475   1.158       .  T
C1471      N1473   1.157       .  T
C1472      N1474   1.158       .  T
C1477      C1478   1.407       .  A
C1477      C1482   1.407       .  A
C1478      C1479   1.410       .  A
C1478      C1483   1.453       .  S
C1479      C1480   1.427       .  A
C1479      C1486   1.453       .  S
C1480      C1481   1.427       .  A
C1481      C1482   1.415       .  A
C1481      C1484   1.450       .  S
C1482      C1485   1.452       .  S
C1483      N1490   1.157       .  T
C1484      N1489   1.158       .  T
C1485      N1487   1.157       .  T
C1486      N1488   1.158       .  T
C1491      C1492   1.417       .  A
C1491      C1496   1.418       .  A
C1492      C1493   1.406       .  A
C1492      C1497   1.453       .  S
C1493      C1494   1.421       .  A
C1493      C1500   1.452       .  S
C1494      C1495   1.420       .  A
C1495      C1496   1.414       .  A
C1495      C1498   1.450       .  S
C1496      C1499   1.453       .  S
C1497      N1504   1.158       .  T
C1498      N1503   1.157       .  T
C1499      N1501   1.157       .  T
C1500      N1502   1.158       .  T
C1505      C1506   1.430       .  A
C1505      C1510   1.428       .  A
C1506      C1507   1.411       .  A
C1506      C1511   1.453       .  S
C1507      C1508   1.406       .  A
C1507      C1514   1.453       .  S
C1508      C1509   1.402       .  A
C1509      C1510   1.410       .  A
C1509      C1512   1.448       .  S
C1510      C1513   1.450       .  S
C1511      N1518   1.158       .  T
C1512      N1517   1.155       .  T
C1513      N1515   1.158       .  T
C1514      N1516   1.157       .  T
N1519      N1520   1.321       .  A
N1519      N1525   1.316       .  A
N1520      C1527   1.353       .  A
N1521      N1523   1.317       .  A
N1521      N1522   1.319       .  A
N1521     Mn1537   2.197   1_554  S
N1522      C1528   1.350       .  A
N1523      N1524   1.321       .  A
N1524      C1528   1.353       .  A
N1525      N1526   1.320       .  A
N1526      C1527   1.350       .  A
C1527      C1761   1.479       .  S
C1528      C1674   1.479       .  S
N1529      N1535   1.313       .  A
N1529      N1530   1.316       .  A
N1529     Mn1559   2.193   1_565  S
N1530      C1538   1.353       .  A
N1531      N1532   1.319       .  A
N1531      N1533   1.316       .  A
N1532      C1539   1.351       .  A
N1533      N1534   1.323       .  A
N1534      C1539   1.355       .  A
N1535      N1536   1.322       .  A
N1535     Mn1790   2.202       .  S
N1536      C1538   1.356       .  A
Mn1537     N1788   2.202       .  S
C1538      C1747   1.502       .  S
C1539      C1716   1.485       .  S
N1540      N1541   1.322       .  A
N1540      N1546   1.317       .  A
N1541      C1549   1.354       .  A
N1542      N1544   1.317       .  A
N1542      N1543   1.320       .  A
N1542     Mn1813   2.200   1_655  S
N1543      C1550   1.351       .  A
N1544      N1545   1.320       .  A
N1544     Mn1548   2.201       .  S
N1545      C1550   1.351       .  A
N1546      N1547   1.319       .  A
N1547      C1549   1.351       .  A
C1549      C1705   1.483       .  S
C1550      C1691   1.476       .  S
N1551      N1552   1.320       .  A
N1551      N1557   1.316       .  A
N1552      C1562   1.351       .  A
N1553      N1554   1.320       .  A
N1553      N1555   1.314       .  A
N1554      C1563   1.355       .  A
N1555      N1556   1.322       .  A
N1556      C1563   1.358       .  A
N1557      N1558   1.321       .  A
N1557     Mn1560   2.207   1_655  S
N1558      C1562   1.353       .  A
Mn1560     N1795   2.200   1_455  S
C1562      C1730   1.481       .  S
C1563      C1660   1.512       .  S
C1564      C1565   1.558       .  S
C1564      C1570   1.560       .  S
C1564      C1568   1.548       .  S
C1564      C1663   1.553       .  S
C1565      H1572   1.084       .  S
C1565      C1566   1.368       .  D
C1566      C1567   1.537       .  S
C1566      C1607   1.518       .  S
C1567      C1571   1.536       .  S
C1567      C1569   1.538       .  S
C1567      H1573   1.047       .  S
C1568      H1574   1.085       .  S
C1568      C1569   1.365       .  D
C1569      C1617   1.516       .  S
C1570      H1575   1.082       .  S
C1570      C1571   1.368       .  D
C1571      C1578   1.518       .  S
C1576      C1577   1.557       .  S
C1576      C1582   1.553       .  S
C1576      C1580   1.547       .  S
C1576      C1744   1.544       .  S
C1577      H1584   1.084       .  S
C1577      C1578   1.369       .  D
C1578      C1579   1.540       .  S
C1579      C1583   1.538       .  S
C1579      C1581   1.540       .  S
C1579      H1585   1.049       .  S
C1580      H1586   1.085       .  S
C1580      C1581   1.365       .  D
C1581      C1650   1.517       .  S
C1582      H1587   1.081       .  S
C1582      C1583   1.360       .  D
C1583      C1590   1.510       .  S
C1588      C1589   1.555       .  S
C1588      C1594   1.548       .  S
C1588      C1592   1.559       .  S
C1588      C1677   1.551       .  S
C1589      H1596   1.084       .  S
C1589      C1590   1.367       .  D
C1590      C1591   1.530       .  S
C1591      C1595   1.530       .  S
C1591      C1593   1.533       .  S
C1591      H1597   1.044       .  S
C1592      H1598   1.081       .  S
C1592      C1593   1.368       .  D
C1593      C1641   1.514       .  S
C1594      H1599   1.085       .  S
C1594      C1595   1.366       .  D
C1595      C1602   1.511       .  S
C1600      C1601   1.544       .  S
C1600      C1606   1.558       .  S
C1600      C1604   1.559       .  S
C1600      C1702   1.548       .  S
C1601      H1608   1.085       .  S
C1601      C1602   1.361       .  D
C1602      C1603   1.536       .  S
C1603      C1607   1.537       .  S
C1603      C1605   1.535       .  S
C1603      H1609   1.045       .  S
C1604      H1610   1.083       .  S
C1604      C1605   1.369       .  D
C1605      C1629   1.515       .  S
C1606      H1611   1.083       .  S
C1606      C1607   1.366       .  D
C1612      C1613   1.558       .  S
C1612      C1618   1.545       .  S
C1612      C1616   1.560       .  S
C1612      C1733   1.550       .  S
C1613      H1620   1.083       .  S
C1613      C1614   1.366       .  D
C1614      C1615   1.534       .  S
C1614      C1653   1.514       .  S
C1615      C1619   1.533       .  S
C1615      C1617   1.536       .  S
C1615      H1621   1.044       .  S
C1616      H1622   1.082       .  S
C1616      C1617   1.370       .  D
C1618      H1623   1.085       .  S
C1618      C1619   1.363       .  D
C1619      C1626   1.512       .  S
C1624      C1625   1.546       .  S
C1624      C1630   1.555       .  S
C1624      C1628   1.559       .  S
C1624      C1688   1.547       .  S
C1625      H1632   1.085       .  S
C1625      C1626   1.362       .  D
C1626      C1627   1.534       .  S
C1627      C1631   1.538       .  S
C1627      C1629   1.538       .  S
C1627      H1633   1.048       .  S
C1628      H1634   1.080       .  S
C1628      C1629   1.367       .  D
C1630      H1635   1.084       .  S
C1630      C1631   1.365       .  D
C1631      C1638   1.515       .  S
C1636      C1637   1.556       .  S
C1636      C1642   1.546       .  S
C1636      C1640   1.559       .  S
C1636      C1758   1.551       .  S
C1637      H1644   1.084       .  S
C1637      C1638   1.368       .  D
C1638      C1639   1.537       .  S
C1639      C1643   1.534       .  S
C1639      C1641   1.536       .  S
C1639      H1645   1.047       .  S
C1640      H1646   1.079       .  S
C1640      C1641   1.365       .  D
C1642      H1647   1.085       .  S
C1642      C1643   1.362       .  D
C1643      C1655   1.513       .  S
C1648      C1649   1.561       .  S
C1648      C1654   1.557       .  S
C1648      C1652   1.545       .  S
C1648      C1719   1.551       .  S
C1649      H1656   1.083       .  S
C1649      C1650   1.371       .  D
C1650      C1651   1.535       .  S
C1651      C1655   1.534       .  S
C1651      C1653   1.535       .  S
C1651      H1657   1.045       .  S
C1652      H1658   1.085       .  S
C1652      C1653   1.362       .  D
C1654      H1659   1.083       .  S
C1654      C1655   1.366       .  D
C1660      C1661   1.422       .  A
C1660      C1665   1.419       .  A
C1661      C1662   1.417       .  A
C1661      C1666   1.452       .  S
C1662      C1663   1.421       .  A
C1662      C1669   1.451       .  S
C1663      C1664   1.421       .  A
C1664      C1665   1.415       .  A
C1664      C1667   1.453       .  S
C1665      C1668   1.450       .  S
C1666      N1673   1.158       .  T
C1667      N1672   1.158       .  T
C1668      N1670   1.157       .  T
C1669      N1671   1.158       .  T
C1674      C1675   1.407       .  A
C1674      C1679   1.406       .  A
C1675      C1676   1.411       .  A
C1675      C1680   1.453       .  S
C1676      C1677   1.428       .  A
C1676      C1683   1.453       .  S
C1677      C1678   1.426       .  A
C1678      C1679   1.412       .  A
C1678      C1681   1.449       .  S
C1679      C1682   1.452       .  S
C1680      N1687   1.157       .  T
C1681      N1686   1.158       .  T
C1682      N1684   1.157       .  T
C1683      N1685   1.158       .  T
C1688      C1689   1.426       .  A
C1688      C1693   1.429       .  A
C1689      C1690   1.410       .  A
C1689      C1694   1.450       .  S
C1690      C1691   1.403       .  A
C1690      C1697   1.448       .  S
C1691      C1692   1.405       .  A
C1692      C1693   1.409       .  A
C1692      C1695   1.453       .  S
C1693      C1696   1.453       .  S
C1694      N1701   1.158       .  T
C1695      N1700   1.157       .  T
C1696      N1698   1.158       .  T
C1697      N1699   1.155       .  T
C1702      C1703   1.426       .  A
C1702      C1707   1.426       .  A
C1703      C1704   1.413       .  A
C1703      C1708   1.451       .  S
C1704      C1705   1.408       .  A
C1704      C1711   1.453       .  S
C1705      C1706   1.408       .  A
C1706      C1707   1.411       .  A
C1706      C1709   1.453       .  S
C1707      C1710   1.453       .  S
C1708      N1715   1.158       .  T
C1709      N1714   1.157       .  T
C1710      N1712   1.158       .  T
C1711      N1713   1.157       .  T
C1716      C1717   1.409       .  A
C1716      C1721   1.409       .  A
C1717      C1718   1.412       .  A
C1717      C1722   1.453       .  S
C1718      C1719   1.427       .  A
C1718      C1725   1.452       .  S
C1719      C1720   1.425       .  A
C1720      C1721   1.414       .  A
C1720      C1723   1.451       .  S
C1721      C1724   1.452       .  S
C1722      N1729   1.157       .  T
C1723      N1728   1.158       .  T
C1724      N1726   1.157       .  T
C1725      N1727   1.158       .  T
C1730      C1731   1.407       .  A
C1730      C1735   1.407       .  A
C1731      C1732   1.410       .  A
C1731      C1736   1.453       .  S
C1732      C1733   1.427       .  A
C1732      C1739   1.453       .  S
C1733      C1734   1.427       .  A
C1734      C1735   1.415       .  A
C1734      C1737   1.450       .  S
C1735      C1738   1.452       .  S
C1736      N1743   1.157       .  T
C1737      N1742   1.158       .  T
C1738      N1740   1.157       .  T
C1739      N1741   1.158       .  T
C1744      C1745   1.417       .  A
C1744      C1749   1.418       .  A
C1745      C1746   1.406       .  A
C1745      C1750   1.453       .  S
C1746      C1747   1.421       .  A
C1746      C1753   1.452       .  S
C1747      C1748   1.420       .  A
C1748      C1749   1.414       .  A
C1748      C1751   1.450       .  S
C1749      C1752   1.453       .  S
C1750      N1757   1.158       .  T
C1751      N1756   1.157       .  T
C1752      N1754   1.157       .  T
C1753      N1755   1.158       .  T
C1758      C1759   1.430       .  A
C1758      C1763   1.428       .  A
C1759      C1760   1.411       .  A
C1759      C1764   1.453       .  S
C1760      C1761   1.406       .  A
C1760      C1767   1.453       .  S
C1761      C1762   1.402       .  A
C1762      C1763   1.410       .  A
C1762      C1765   1.448       .  S
C1763      C1766   1.450       .  S
C1764      N1771   1.158       .  T
C1765      N1770   1.155       .  T
C1766      N1768   1.158       .  T
C1767      N1769   1.157       .  T
N1772      N1773   1.321       .  A
N1772      N1778   1.316       .  A
N1773      C1780   1.353       .  A
N1774      N1776   1.317       .  A
N1774      N1775   1.319       .  A
N1774     Mn1790   2.197       .  S
N1775      C1781   1.350       .  A
N1776      N1777   1.321       .  A
N1777      C1781   1.353       .  A
N1778      N1779   1.320       .  A
N1779      C1780   1.350       .  A
C1780      C2014   1.479       .  S
C1781      C1927   1.479       .  S
N1782      N1788   1.313       .  A
N1782      N1783   1.316       .  A
N1782     Mn1812   2.193   1_565  S
N1783      C1791   1.353       .  A
N1784      N1785   1.319       .  A
N1784      N1786   1.316       .  A
N1785      C1792   1.351       .  A
N1786      N1787   1.323       .  A
N1787      C1792   1.355       .  A
N1788      N1789   1.322       .  A
N1789      C1791   1.356       .  A
C1791      C2000   1.502       .  S
C1792      C1969   1.485       .  S
N1793      N1794   1.322       .  A
N1793      N1799   1.317       .  A
N1794      C1802   1.354       .  A
N1795      N1797   1.317       .  A
N1795      N1796   1.320       .  A
N1796      C1803   1.351       .  A
N1797      N1798   1.320       .  A
N1797     Mn1801   2.201       .  S
N1798      C1803   1.351       .  A
N1799      N1800   1.319       .  A
N1800      C1802   1.351       .  A
C1802      C1958   1.483       .  S
C1803      C1944   1.476       .  S
N1804      N1805   1.320       .  A
N1804      N1810   1.316       .  A
N1805      C1815   1.351       .  A
N1806      N1807   1.320       .  A
N1806      N1808   1.314       .  A
N1807      C1816   1.355       .  A
N1808      N1809   1.322       .  A
N1809      C1816   1.358       .  A
N1810      N1811   1.321       .  A
N1810     Mn1813   2.207   1_656  S
N1811      C1815   1.353       .  A
C1815      C1983   1.481       .  S
C1816      C1913   1.512       .  S
C1817      C1818   1.558       .  S
C1817      C1823   1.560       .  S
C1817      C1821   1.548       .  S
C1817      C1916   1.553       .  S
C1818      H1825   1.084       .  S
C1818      C1819   1.368       .  D
C1819      C1820   1.537       .  S
C1819      C1860   1.518       .  S
C1820      C1824   1.536       .  S
C1820      C1822   1.538       .  S
C1820      H1826   1.047       .  S
C1821      H1827   1.085       .  S
C1821      C1822   1.365       .  D
C1822      C1870   1.516       .  S
C1823      H1828   1.082       .  S
C1823      C1824   1.368       .  D
C1824      C1831   1.518       .  S
C1829      C1830   1.557       .  S
C1829      C1835   1.553       .  S
C1829      C1833   1.547       .  S
C1829      C1997   1.544       .  S
C1830      H1837   1.084       .  S
C1830      C1831   1.369       .  D
C1831      C1832   1.540       .  S
C1832      C1836   1.538       .  S
C1832      C1834   1.540       .  S
C1832      H1838   1.049       .  S
C1833      H1839   1.085       .  S
C1833      C1834   1.365       .  D
C1834      C1903   1.517       .  S
C1835      H1840   1.081       .  S
C1835      C1836   1.360       .  D
C1836      C1843   1.510       .  S
C1841      C1842   1.555       .  S
C1841      C1847   1.548       .  S
C1841      C1845   1.559       .  S
C1841      C1930   1.551       .  S
C1842      H1849   1.084       .  S
C1842      C1843   1.367       .  D
C1843      C1844   1.530       .  S
C1844      C1848   1.530       .  S
C1844      C1846   1.533       .  S
C1844      H1850   1.044       .  S
C1845      H1851   1.081       .  S
C1845      C1846   1.368       .  D
C1846      C1894   1.514       .  S
C1847      H1852   1.085       .  S
C1847      C1848   1.366       .  D
C1848      C1855   1.511       .  S
C1853      C1854   1.544       .  S
C1853      C1859   1.558       .  S
C1853      C1857   1.559       .  S
C1853      C1955   1.548       .  S
C1854      H1861   1.085       .  S
C1854      C1855   1.361       .  D
C1855      C1856   1.536       .  S
C1856      C1860   1.537       .  S
C1856      C1858   1.535       .  S
C1856      H1862   1.045       .  S
C1857      H1863   1.083       .  S
C1857      C1858   1.369       .  D
C1858      C1882   1.515       .  S
C1859      H1864   1.083       .  S
C1859      C1860   1.366       .  D
C1865      C1866   1.558       .  S
C1865      C1871   1.545       .  S
C1865      C1869   1.560       .  S
C1865      C1986   1.550       .  S
C1866      H1873   1.083       .  S
C1866      C1867   1.366       .  D
C1867      C1868   1.534       .  S
C1867      C1906   1.514       .  S
C1868      C1872   1.533       .  S
C1868      C1870   1.536       .  S
C1868      H1874   1.044       .  S
C1869      H1875   1.082       .  S
C1869      C1870   1.370       .  D
C1871      H1876   1.085       .  S
C1871      C1872   1.363       .  D
C1872      C1879   1.512       .  S
C1877      C1878   1.546       .  S
C1877      C1883   1.555       .  S
C1877      C1881   1.559       .  S
C1877      C1941   1.547       .  S
C1878      H1885   1.085       .  S
C1878      C1879   1.362       .  D
C1879      C1880   1.534       .  S
C1880      C1884   1.538       .  S
C1880      C1882   1.538       .  S
C1880      H1886   1.048       .  S
C1881      H1887   1.080       .  S
C1881      C1882   1.367       .  D
C1883      H1888   1.084       .  S
C1883      C1884   1.365       .  D
C1884      C1891   1.515       .  S
C1889      C1890   1.556       .  S
C1889      C1895   1.546       .  S
C1889      C1893   1.559       .  S
C1889      C2011   1.551       .  S
C1890      H1897   1.084       .  S
C1890      C1891   1.368       .  D
C1891      C1892   1.537       .  S
C1892      C1896   1.534       .  S
C1892      C1894   1.536       .  S
C1892      H1898   1.047       .  S
C1893      H1899   1.079       .  S
C1893      C1894   1.365       .  D
C1895      H1900   1.085       .  S
C1895      C1896   1.362       .  D
C1896      C1908   1.513       .  S
C1901      C1902   1.561       .  S
C1901      C1907   1.557       .  S
C1901      C1905   1.545       .  S
C1901      C1972   1.551       .  S
C1902      H1909   1.083       .  S
C1902      C1903   1.371       .  D
C1903      C1904   1.535       .  S
C1904      C1908   1.534       .  S
C1904      C1906   1.535       .  S
C1904      H1910   1.045       .  S
C1905      H1911   1.085       .  S
C1905      C1906   1.362       .  D
C1907      H1912   1.083       .  S
C1907      C1908   1.366       .  D
C1913      C1914   1.422       .  A
C1913      C1918   1.419       .  A
C1914      C1915   1.417       .  A
C1914      C1919   1.452       .  S
C1915      C1916   1.421       .  A
C1915      C1922   1.451       .  S
C1916      C1917   1.421       .  A
C1917      C1918   1.415       .  A
C1917      C1920   1.453       .  S
C1918      C1921   1.450       .  S
C1919      N1926   1.158       .  T
C1920      N1925   1.158       .  T
C1921      N1923   1.157       .  T
C1922      N1924   1.158       .  T
C1927      C1928   1.407       .  A
C1927      C1932   1.406       .  A
C1928      C1929   1.411       .  A
C1928      C1933   1.453       .  S
C1929      C1930   1.428       .  A
C1929      C1936   1.453       .  S
C1930      C1931   1.426       .  A
C1931      C1932   1.412       .  A
C1931      C1934   1.449       .  S
C1932      C1935   1.452       .  S
C1933      N1940   1.157       .  T
C1934      N1939   1.158       .  T
C1935      N1937   1.157       .  T
C1936      N1938   1.158       .  T
C1941      C1942   1.426       .  A
C1941      C1946   1.429       .  A
C1942      C1943   1.410       .  A
C1942      C1947   1.450       .  S
C1943      C1944   1.403       .  A
C1943      C1950   1.448       .  S
C1944      C1945   1.405       .  A
C1945      C1946   1.409       .  A
C1945      C1948   1.453       .  S
C1946      C1949   1.453       .  S
C1947      N1954   1.158       .  T
C1948      N1953   1.157       .  T
C1949      N1951   1.158       .  T
C1950      N1952   1.155       .  T
C1955      C1956   1.426       .  A
C1955      C1960   1.426       .  A
C1956      C1957   1.413       .  A
C1956      C1961   1.451       .  S
C1957      C1958   1.408       .  A
C1957      C1964   1.453       .  S
C1958      C1959   1.408       .  A
C1959      C1960   1.411       .  A
C1959      C1962   1.453       .  S
C1960      C1963   1.453       .  S
C1961      N1968   1.158       .  T
C1962      N1967   1.157       .  T
C1963      N1965   1.158       .  T
C1964      N1966   1.157       .  T
C1969      C1970   1.409       .  A
C1969      C1974   1.409       .  A
C1970      C1971   1.412       .  A
C1970      C1975   1.453       .  S
C1971      C1972   1.427       .  A
C1971      C1978   1.452       .  S
C1972      C1973   1.425       .  A
C1973      C1974   1.414       .  A
C1973      C1976   1.451       .  S
C1974      C1977   1.452       .  S
C1975      N1982   1.157       .  T
C1976      N1981   1.158       .  T
C1977      N1979   1.157       .  T
C1978      N1980   1.158       .  T
C1983      C1984   1.407       .  A
C1983      C1988   1.407       .  A
C1984      C1985   1.410       .  A
C1984      C1989   1.453       .  S
C1985      C1986   1.427       .  A
C1985      C1992   1.453       .  S
C1986      C1987   1.427       .  A
C1987      C1988   1.415       .  A
C1987      C1990   1.450       .  S
C1988      C1991   1.452       .  S
C1989      N1996   1.157       .  T
C1990      N1995   1.158       .  T
C1991      N1993   1.157       .  T
C1992      N1994   1.158       .  T
C1997      C1998   1.417       .  A
C1997      C2002   1.418       .  A
C1998      C1999   1.406       .  A
C1998      C2003   1.453       .  S
C1999      C2000   1.421       .  A
C1999      C2006   1.452       .  S
C2000      C2001   1.420       .  A
C2001      C2002   1.414       .  A
C2001      C2004   1.450       .  S
C2002      C2005   1.453       .  S
C2003      N2010   1.158       .  T
C2004      N2009   1.157       .  T
C2005      N2007   1.157       .  T
C2006      N2008   1.158       .  T
C2011      C2012   1.430       .  A
C2011      C2016   1.428       .  A
C2012      C2013   1.411       .  A
C2012      C2017   1.453       .  S
C2013      C2014   1.406       .  A
C2013      C2020   1.453       .  S
C2014      C2015   1.402       .  A
C2015      C2016   1.410       .  A
C2015      C2018   1.448       .  S
C2016      C2019   1.450       .  S
C2017      N2024   1.158       .  T
C2018      N2023   1.155       .  T
C2019      N2021   1.158       .  T
C2020      N2022   1.157       .  T
