geometry optimzed in LAMMPS
_audit_creation_date              2020-12-01 
_audit_creation_method            'lammps2cif' 
_symmetry_space_group_name_H-M    'P1' 
_symmetry_Int_Tables_number       1 
_symmetry_cell_setting            triclinic 
loop_ 
_symmetry_equiv_pos_as_xyz 
  x,y,z 
_cell_length_a                    27.8759202 
_cell_length_b                    27.30971104057275 
_cell_length_c                    28.178085587305414 
_cell_angle_alpha                 89.13511493517633 
_cell_angle_beta                  89.98652709420374 
_cell_angle_gamma                 89.85978184122438 
loop_ 
_atom_site_label 
_atom_site_type_symbol 
_atom_site_fract_x 
_atom_site_fract_y 
_atom_site_fract_z 
_atom_site_charge 
C1          C  0.39986124  0.41115401  0.37737927     0.44100
N2          N  0.44511702  0.42188711  0.43798654     0.03000
C3          C  0.43087690  0.61402518  0.59708029    -0.04900
H4          H  0.46417510  0.66917724  0.42853471     0.08500
C5          C  0.62219096  0.56996177  0.43069069    -0.05200
Co6        Co  0.40986383  0.50422832  0.49829165     0.74200
N7          N  0.45001132  0.59797509  0.45975340    -0.24400
Co8        Co  0.50035351  0.58909410  0.51420531     0.74100
C9          C  0.60683962  0.61817008  0.41295410     0.44200
N10         N  0.58731646  0.44839591  0.45109276     0.02600
N11         N  0.55715960  0.59291027  0.46601693     0.02700
N12         N  0.37166593  0.55915755  0.58492642    -0.45300
H13         H  0.35050108  0.47502046  0.39800766     0.08500
N14         N  0.41565104  0.56555434  0.45311350     0.03000
N15         N  0.55035576  0.57860237  0.56859470     0.02700
C16         C  0.59521577  0.58944069  0.62941340     0.44300
N17         N  0.55255548  0.41639204  0.44474694    -0.23900
C18         C  0.37417894  0.43052288  0.57706107    -0.04800
N19         N  0.43814539  0.39301061  0.40123233    -0.45000
N20         N  0.55740155  0.60785893  0.60504362    -0.45200
C21         C  0.38972151  0.38238187  0.59475480     0.44100
N22         N  0.40833893  0.55193165  0.55582011     0.03000
N23         N  0.54545524  0.40180717  0.54678144    -0.23900
N24         N  0.41254961  0.45693201  0.44070692    -0.24400
N25         N  0.57973327  0.43420426  0.55386869     0.02600
H26         H  0.53101685  0.33043012  0.57747987     0.08500
H27         H  0.64395956  0.52469930  0.60993236     0.08500
N28         N  0.44308851  0.58402865  0.56176466    -0.24400
N29         N  0.58932862  0.55740994  0.46357805    -0.24100
N30         N  0.43853684  0.40721167  0.54074810     0.03000
C31         C  0.40005009  0.62362735  0.40321414     0.44400
C32         C  0.56486578  0.38679825  0.40910604    -0.05300
N33         N  0.58254853  0.54312996  0.56647201    -0.24100
H34         H  0.65357863  0.54873296  0.42158354     0.08500
N35         N  0.38468830  0.57966193  0.41981435    -0.45300
H36         H  0.54485999  0.35504834  0.39811188     0.08500
C37         C  0.59499480  0.37571547  0.60354757     0.44200
C38         C  0.38223942  0.45292420  0.40399810    -0.04800
Co39       Co  0.49520497  0.41109367  0.49230556     0.73800
N40         N  0.62402540  0.44152722  0.42195297    -0.45000
C41         C  0.38344565  0.59737643  0.61247998     0.44500
N42         N  0.42949812  0.37020638  0.57034128    -0.45000
Co43       Co  0.58562121  0.49583427  0.50884886     0.73900
C44         C  0.61247347  0.54704324  0.60350097    -0.05300
C45         C  0.44306036  0.63601337  0.42984466    -0.04900
N46         N  0.40651946  0.44281423  0.54360807    -0.24400
N47         N  0.56659572  0.63008438  0.43674511    -0.45200
H48         H  0.45091225  0.64590991  0.60766182     0.08500
C49         C  0.55220061  0.36355615  0.57648586    -0.05300
Cl50       Cl  0.49776798  0.50006405  0.50341188    -0.48300
C51         C  0.61235458  0.40363390  0.39394487     0.44200
H52         H  0.34305121  0.45192494  0.58663347     0.08400
N53         N  0.61047663  0.41982462  0.58731666    -0.45000
C54         C  0.68376703  0.68173619  0.68351163     0.88100
C55         C  0.71801941  0.65028055  0.71438627    -0.52100
C56         C  0.74588648  0.67727341  0.74403270     0.11000
C57         C  0.73724827  0.73267384  0.74023749     0.22000
C58         C  0.65497718  0.71268586  0.71881739    -0.52800
C59         C  0.68319912  0.73931397  0.74835728     0.11100
C60         C  0.71679094  0.71870514  0.65768410    -0.52400
C61         C  0.74478152  0.74507181  0.68757588     0.11700
H62         H  0.72038722  0.61065602  0.71247228     0.16200
H63         H  0.76008317  0.75445818  0.76439346     0.02000
H64         H  0.61603890  0.71402882  0.71974908     0.16500
H65         H  0.71835381  0.72316458  0.61933971     0.16300
C66         C  0.68688595  0.32218158  0.69463876     0.88100
C67         C  0.65740578  0.28959864  0.72905469    -0.52100
C68         C  0.68499464  0.25852428  0.75609592     0.11000
C69         C  0.73906871  0.26309450  0.74691044     0.22000
C70         C  0.72316794  0.34850950  0.72664966    -0.52800
C71         C  0.75026641  0.31744008  0.75396469     0.11100
C72         C  0.71751892  0.28614032  0.66582706    -0.52400
C73         C  0.74480427  0.25542275  0.69341358     0.11700
H74         H  0.61853063  0.29068911  0.73139829     0.16200
H75         H  0.76138204  0.23793494  0.76914674     0.02000
H76         H  0.72697368  0.38805520  0.72772396     0.16500
H77         H  0.71812353  0.28560156  0.62729399     0.16300
C78         C  0.32676356  0.68962103  0.70029561     0.88100
C79         C  0.35165416  0.72694224  0.73244944    -0.52100
C80         C  0.32056811  0.75371434  0.75892285     0.11000
C81         C  0.26763486  0.74128427  0.75104018     0.22000
C82         C  0.29541453  0.65862489  0.73429006    -0.52800
C83         C  0.26436733  0.68594110  0.76051248     0.11100
C84         C  0.29093888  0.72038496  0.67052137    -0.52400
C85         C  0.26014454  0.74743348  0.69737300     0.11700
H86         H  0.39029392  0.73169160  0.73422616     0.16200
H87         H  0.24247054  0.76332872  0.77272880     0.02000
H88         H  0.29731468  0.61895412  0.73700159     0.16500
H89         H  0.29049413  0.72116480  0.63197700     0.16300
C90         C  0.30624006  0.33082824  0.69360128     0.88100
C91         C  0.27243300  0.35774390  0.72773162    -0.52100
C92         C  0.24785323  0.32709855  0.75753877     0.11000
C93         C  0.25867961  0.27263828  0.75060399     0.22000
C94         C  0.33854673  0.29904476  0.72632085    -0.52800
C95         C  0.31328405  0.26854464  0.75599570     0.11100
C96         C  0.27383545  0.29421229  0.66781324    -0.52400
C97         C  0.24906963  0.26386321  0.69781378     0.11700
H98         H  0.26868019  0.39732619  0.72862792     0.16200
H99         H  0.23830112  0.24789321  0.77492297     0.02000
H100        H  0.37746619  0.30070061  0.72611153     0.16500
H101        H  0.27063083  0.29268410  0.62944210     0.16300
N102        N  0.00249275  0.92520384  0.63626985    -0.35000
N103        N  0.07595327  0.00135000  0.64158051    -0.55500
N104        N  0.00109502  0.07710129  0.63866069    -0.35000
N105        N  0.92761239  0.00079599  0.63948605    -0.55500
C106        C  0.04183813  0.89711873  0.64455057     0.28600
C107        C  0.96338728  0.89680612  0.64391694     0.28600
C108        C  0.03993053  0.10490215  0.64838963     0.28600
C109        C  0.96152581  0.10463811  0.64678994     0.28600
C110        C  0.10495494  0.96195943  0.63661215     0.37200
C111        C  0.10420715  0.04145765  0.63827312     0.37200
C112        C  0.89934092  0.96098682  0.63484306     0.37200
C113        C  0.89863465  0.04044973  0.63554102     0.42900
C114        C  0.02748444  0.84986503  0.65638761    -0.20300
C115        C  0.97814056  0.84966917  0.65599089    -0.20300
C116        C  0.02479430  0.15115793  0.66176784    -0.20300
C117        C  0.97547058  0.15099954  0.66071072    -0.20300
C118        C  0.15200444  0.97716576  0.63039512    -0.21300
C119        C  0.15153460  0.02742978  0.63146490    -0.21300
C120        C  0.85203574  0.97547199  0.62831576    -0.21300
C121        C  0.85159787  0.02570096  0.62871958    -0.21300
C122        C  0.09032595  0.91247877  0.64112107    -0.16700
C123        C  0.91477564  0.91175244  0.63971998    -0.16700
C124        C  0.91320191  0.08958489  0.64142440    -0.16700
C125        C  0.08864215  0.09030718  0.64469287    -0.16700
H126        H  0.05016800  0.81869548  0.66475705     0.16200
H127        H  0.95571046  0.81832156  0.66399898     0.16200
H128        H  0.04694160  0.18191144  0.67150972     0.16200
H129        H  0.95251631  0.18156116  0.66953903     0.16200
H130        H  0.18352111  0.95440506  0.62621990     0.14500
H131        H  0.18261645  0.05092719  0.62826015     0.14500
H132        H  0.82091335  0.95226967  0.62435370     0.14500
H133        H  0.82007739  0.04868780  0.62517657     0.14500
H134        H  0.00233284  0.96129180  0.62467301     0.27800
H135        H  0.00162244  0.04188931  0.62570932     0.27800
C136        C  0.68890267  0.66942579  0.31254984     0.88100
C137        C  0.65509809  0.70016245  0.28044488    -0.52100
C138        C  0.67892823  0.73035393  0.24938752     0.11000
C139        C  0.73372462  0.72700589  0.25278977     0.22000
C140        C  0.72181192  0.64222030  0.27773195    -0.52800
C141        C  0.74495101  0.67252464  0.24644832     0.11100
C142        C  0.72177331  0.70700857  0.33645942    -0.52400
C143        C  0.74511976  0.73703654  0.30500123     0.11700
H144        H  0.61622689  0.69823571  0.28219774     0.16200
H145        H  0.75288136  0.75153644  0.22730338     0.02000
H146        H  0.72604855  0.60267023  0.27751745     0.16500
H147        H  0.72625138  0.70944253  0.37464462     0.16300
C148        C  0.30718909  0.67577196  0.31276780     0.88100
C149        C  0.27219719  0.64880269  0.27992670    -0.52100
C150        C  0.24471127  0.67945836  0.25259124     0.11000
C151        C  0.25429932  0.73398516  0.26036319     0.22000
C152        C  0.33630783  0.70959043  0.27921042    -0.52800
C153        C  0.30836416  0.74020534  0.25209910     0.11100
C154        C  0.27508041  0.71052717  0.34153988    -0.52400
C155        C  0.24740673  0.74077467  0.31383117     0.11700
H156        H  0.26932798  0.60918741  0.27850751     0.16200
H157        H  0.23166029  0.75876451  0.23805206     0.02000
H158        H  0.37522746  0.70959455  0.27743300     0.16500
H159        H  0.27385163  0.71058809  0.38006878     0.16300
N160        N  0.07215605  0.62470227  0.00080825    -0.35000
N161        N  0.00246767  0.62736207  0.92271094    -0.55500
N162        N  0.92378214  0.62096552  0.99163395    -0.35000
N163        N  0.99346807  0.62453328  0.06962309    -0.55500
C164        C  0.10237361  0.63193241  0.96377177     0.28600
C165        C  0.09746574  0.63127155  0.04121699     0.28600
C166        C  0.89852089  0.62965143  0.95130096     0.28600
C167        C  0.89378999  0.62795577  0.02877820     0.28600
C168        C  0.04324531  0.62561906  0.89672555     0.37200
C169        C  0.96540951  0.62438999  0.89188337     0.37200
C170        C  0.03063883  0.62176806  0.10039977     0.37200
C171        C  0.95295573  0.61933259  0.09555441     0.37200
C172        C  0.14789779  0.64205087  0.98097435    -0.20300
C173        C  0.14479457  0.64171361  0.02964935    -0.20300
C174        C  0.85148071  0.64111418  0.96304288    -0.20300
C175        C  0.84851894  0.64005598  0.01175425    -0.20300
C176        C  0.03194698  0.62212348  0.84895039    -0.21300
C177        C  0.98277306  0.62134217  0.84589575    -0.21300
C178        C  0.01359164  0.61515896  0.14627698    -0.21300
C179        C  0.96449133  0.61351131  0.14321675    -0.21300
C180        C  0.09050698  0.62941876  0.91490233    -0.16700
C181        C  0.07959679  0.62762678  0.08827929    -0.16700
C182        C  0.90565628  0.62327684  0.07759574    -0.16700
C183        C  0.91616525  0.62702108  0.90414801    -0.16700
H184        H  0.18010564  0.64930304  0.96062332     0.16200
H185        H  0.17418652  0.64856925  0.05372480     0.16200
H186        H  0.82226546  0.64982213  0.93904730     0.16200
H187        H  0.81661947  0.64773482  0.03227307     0.16200
H188        H  0.05654734  0.62074160  0.81927309     0.14500
H189        H  0.96217904  0.61932098  0.81342893     0.14500
H190        H  0.03433083  0.61227034  0.17867180     0.14500
H191        H  0.94007442  0.60926167  0.17285717     0.14500
H192        H  0.03657996  0.61476397  0.99858756     0.27800
H193        H  0.95903905  0.60937440  0.99368753     0.27800
C194        C  0.30967059  0.31976005  0.32444616     0.88100
C195        C  0.33944530  0.28726568  0.29121447    -0.52100
C196        C  0.31201475  0.25934179  0.26205028     0.11000
C197        C  0.25777869  0.26606259  0.26869165     0.22000
C198        C  0.27621680  0.34966762  0.29140458    -0.52800
C199        C  0.24908811  0.32126424  0.26233802     0.11100
C200        C  0.27612767  0.28388352  0.35098913    -0.52400
C201        C  0.24914002  0.25591885  0.32162782     0.11700
H202        H  0.37840212  0.28630985  0.29098364     0.16200
H203        H  0.23561364  0.24311562  0.24495364     0.02000
H204        H  0.27380008  0.38936650  0.29151002     0.16500
H205        H  0.27381689  0.28095653  0.38941587     0.16300
N206        N  0.91980463  0.00046903  0.36287219    -0.35000
N207        N  0.99484403  0.07464555  0.36605550    -0.55500
N208        N  0.06794195  0.99767018  0.36832789    -0.35000
N209        N  0.99306803  0.92389233  0.35944704    -0.55500
C210        C  0.89398171  0.04155403  0.35349727     0.28600
C211        C  0.89301638  0.96176327  0.34943256     0.28600
C212        C  0.09541501  0.03769344  0.35996476     0.28600
C213        C  0.09448449  0.95788957  0.35714261     0.28600
C214        C  0.95617220  0.10369313  0.37279960     0.37200
C215        C  0.03393362  0.10220969  0.37494972     0.37200
C216        C  0.95355393  0.89544231  0.36268086     0.37200
C217        C  0.03126772  0.89395036  0.36602691     0.37200
C218        C  0.84991781  0.02871909  0.33451189    -0.20300
C219        C  0.84931116  0.97843916  0.33196139    -0.20300
C220        C  0.14024732  0.02308505  0.34399434    -0.20300
C221        C  0.13967248  0.97278402  0.34226751    -0.20300
C222        C  0.97077506  0.15010241  0.38579743    -0.21300
C223        C  0.02005915  0.14917353  0.38712544    -0.21300
C224        C  0.96674673  0.84706677  0.37099362    -0.21300
C225        C  0.01597151  0.84612933  0.37312393    -0.21300
C226        C  0.90829092  0.09009727  0.36326953    -0.16700
C227        C  0.90614970  0.91180260  0.35415508    -0.16700
C228        C  0.07967534  0.90850490  0.36151931    -0.16700
C229        C  0.08181193  0.08684499  0.36798294    -0.16700
H230        H  0.82110664  0.05303093  0.32361448     0.16200
H231        H  0.81995032  0.95665742  0.31875140     0.16200
H232        H  0.17034013  0.04623379  0.33455607     0.16200
H233        H  0.16919822  0.94982117  0.33118162     0.16200
H234        H  0.94830873  0.18158232  0.39270338     0.14500
H235        H  0.04306457  0.17978800  0.39528637     0.14500
H236        H  0.94339778  0.81559037  0.37429841     0.14500
H237        H  0.03800032  0.81380361  0.37834399     0.14500
H238        H  0.95287327  0.99880967  0.37966141     0.27800
H239        H  0.03380750  0.99739148  0.38296982     0.27800
N240        N  0.37096458  0.93356475  0.00731159    -0.35000
N241        N  0.36699249  0.00637874  0.08197853    -0.55500
N242        N  0.37248826  0.08539998  0.00982640    -0.35000
N243        N  0.37020497  0.01261055  0.93506804    -0.55500
C244        C  0.36175537  0.90396834  0.04524889     0.28600
C245        C  0.36335238  0.90724326  0.96771931     0.28600
C246        C  0.36402308  0.11201300  0.04911887     0.28600
C247        C  0.36558277  0.11519968  0.97149675     0.28600
C248        C  0.36999701  0.96556024  0.10969742     0.37200
C249        C  0.37093612  0.04510863  0.11106605     0.37200
C250        C  0.37441569  0.97377638  0.90615481     0.37200
C251        C  0.37511937  0.05324969  0.90745334     0.37200
C252        C  0.34932889  0.85781144  0.02947884    -0.20300
C253        C  0.35031433  0.85986672  0.98072491    -0.20300
C254        C  0.35277268  0.15976953  0.03555503    -0.20300
C255        C  0.35375382  0.16176102  0.98675099    -0.20300
C256        C  0.37547548  0.97846067  0.15677439    -0.21300
C257        C  0.37607575  0.02873180  0.15764988    -0.21300
C258        C  0.38170131  0.98987000  0.85978446    -0.21300
C259        C  0.38213364  0.04011372  0.86060449    -0.21300
C260        C  0.36481924  0.91693361  0.09369982    -0.16700
C261        C  0.36851431  0.92416006  0.92016642    -0.16700
C262        C  0.37019045  0.10200215  0.92317439    -0.16700
C263        C  0.36686333  0.09497466  0.09689652    -0.16700
H264        H  0.34018319  0.82590218  0.05082691     0.16200
H265        H  0.34207674  0.82979792  0.95752956     0.16200
H266        H  0.34443326  0.19013042  0.05841093     0.16200
H267        H  0.34632307  0.19390028  0.96501066     0.16200
H268        H  0.37818165  0.95420655  0.18739785     0.14500
H269        H  0.37932482  0.05070984  0.18912553     0.14500
H270        H  0.38563177  0.96773876  0.82847088     0.14500
H271        H  0.38649087  0.06420266  0.83006005     0.14500
H272        H  0.38318999  0.96922756  0.00826386     0.27800
H273        H  0.38375236  0.04933723  0.00938279     0.27800
N274        N  0.92316264  0.37804201  0.00629186    -0.35000
N275        N  0.99460827  0.37591112  0.08292567    -0.55500
N276        N  0.07169525  0.38123857  0.01270541    -0.35000
N277        N  0.00033382  0.37714521  0.93627340    -0.55500
C278        C  0.89470823  0.36769289  0.04407173     0.28600
C279        C  0.89790200  0.36772417  0.96658797     0.28600
C280        C  0.09780782  0.37287745  0.05255860     0.28600
C281        C  0.10082174  0.37365963  0.97505206     0.28600
C282        C  0.95435543  0.37947862  0.10948216     0.37200
C283        C  0.03222192  0.38073031  0.11284368     0.37200
C284        C  0.96260772  0.38062247  0.90624170     0.37200
C285        C  0.04029295  0.38283164  0.90962454     0.37200
C286        C  0.85039417  0.35176834  0.02807881    -0.20300
C287        C  0.85242114  0.35175981  0.97934462    -0.20300
C288        C  0.14453619  0.36107550  0.03997339    -0.20300
C289        C  0.14642281  0.36156009  0.99121011    -0.20300
C290        C  0.96649744  0.38624697  0.15666290    -0.21300
C291        C  0.01573787  0.38697617  0.15879327    -0.21300
C292        C  0.97869093  0.38828751  0.86017359    -0.21300
C293        C  0.02784027  0.38969350  0.86230086    -0.21300
C294        C  0.90699853  0.37292613  0.09255749    -0.16700
C295        C  0.91417323  0.37298370  0.91912630    -0.16700
C296        C  0.08786540  0.37801872  0.92653184    -0.16700
C297        C  0.08113999  0.37626291  0.09996290    -0.16700
H298        H  0.81975899  0.34085125  0.04929869     0.16200
H299        H  0.82365122  0.34088231  0.95600010     0.16200
H300        H  0.17426771  0.35268140  0.06343981     0.16200
H301        H  0.17785729  0.35362880  0.97009276     0.16200
H302        H  0.94240979  0.38947416  0.18659157     0.14500
H303        H  0.03696912  0.39097644  0.19065089     0.14500
H304        H  0.95729956  0.39161829  0.82822970     0.14500
H305        H  0.05169406  0.39434852  0.83226375     0.14500
H306        H  0.95723838  0.39291762  0.00759504     0.27800
H307        H  0.03640646  0.39288402  0.01121566     0.27800
C308        C  0.67040551  0.31123243  0.30696843     0.88100
C309        C  0.70201184  0.34173720  0.27275747    -0.52100
C310        C  0.73358692  0.31408350  0.24743400     0.11000
C311        C  0.73048421  0.25889811  0.25792710     0.22000
C312        C  0.64616926  0.27303352  0.27527180    -0.52800
C313        C  0.67771170  0.24583869  0.24970667     0.11100
C314        C  0.70609613  0.28137510  0.33773882    -0.52400
C315        C  0.73741954  0.25405999  0.31176522     0.11700
H316        H  0.70000939  0.38135804  0.26939089     0.16200
H317        H  0.75608531  0.23657158  0.23701597     0.02000
H318        H  0.60758552  0.26797910  0.27318123     0.16500
H319        H  0.70625273  0.28158114  0.37627947     0.16300
N320        N  0.62401785  0.06602589  0.00213825    -0.35000
N321        N  0.62805974  0.99364310  0.92724477    -0.55500
N322        N  0.62120947  0.91470168  0.99854949    -0.35000
N323        N  0.62295498  0.98697297  0.07352883    -0.55500
C324        C  0.63584851  0.09491532  0.96442918     0.28600
C325        C  0.63409622  0.09128748  0.04188782     0.28600
C326        C  0.63300778  0.88901307  0.95951609     0.28600
C327        C  0.62996022  0.88553081  0.03690422     0.28600
C328        C  0.62339294  0.03458163  0.89998806     0.37200
C329        C  0.62237400  0.95516450  0.89815071     0.37200
C330        C  0.61718611  0.02566622  0.10233898     0.37200
C331        C  0.61497556  0.94635309  0.10036598     0.37200
C332        C  0.65274763  0.13945199  0.98044055    -0.20300
C333        C  0.65170192  0.13715422  0.02921623    -0.20300
C334        C  0.64871829  0.84264576  0.97322805    -0.20300
C335        C  0.64678823  0.84045701  0.02199070    -0.20300
C336        C  0.61506409  0.02203276  0.85321854    -0.21300
C337        C  0.61442799  0.97174035  0.85205067    -0.21300
C338        C  0.60571575  0.00954328  0.14783710    -0.21300
C339        C  0.60426734  0.95929704  0.14657798    -0.21300
C340        C  0.63054314  0.08284709  0.91600842    -0.16700
C341        C  0.62648787  0.07487467  0.08922069    -0.16700
C342        C  0.62178910  0.89787738  0.08484985    -0.16700
C343        C  0.62836473  0.90549930  0.91185651    -0.16700
H344        H  0.66479839  0.17040929  0.95921227     0.16200
H345        H  0.66273604  0.16607054  0.05265391     0.16200
H346        H  0.66044037  0.81335244  0.95048562     0.16200
H347        H  0.65675348  0.80919632  0.04394096     0.16200
H348        H  0.61075665  0.04653117  0.82295801     0.14500
H349        H  0.60953646  0.94987857  0.82070552     0.14500
H350        H  0.59994069  0.03163494  0.17890217     0.14500
H351        H  0.59722343  0.93504839  0.17649846     0.14500
H352        H  0.60804288  0.03183863  0.00082396     0.27800
H353        H  0.60592916  0.94935261  0.99883100     0.27800
C354        C  0.66272067  0.20806942  0.21764025    -0.16900
C355        C  0.65137097  0.17669628  0.19012145     0.07200
C356        C  0.63987321  0.14045127  0.15669000     0.09000
C357        C  0.63226905  0.11022134  0.12679742    -0.17700
C358        C  0.76833337  0.33447266  0.21465014    -0.16900
C359        C  0.79922246  0.34783522  0.18735760     0.07200
C360        C  0.83662113  0.35986302  0.15528889     0.09000
C361        C  0.86878043  0.36728762  0.12735478    -0.17700
C362        C  0.87214287  0.12850000  0.36007882    -0.16900
C363        C  0.84137151  0.15934649  0.35474095     0.07200
C364        C  0.80479807  0.19406169  0.34474764     0.09000
C365        C  0.77369525  0.22233970  0.33232335    -0.17700
C366        C  0.11647804  0.37137022  0.13779833    -0.16900
C367        C  0.14689264  0.36451296  0.16777740     0.07200
C368        C  0.18311896  0.35328248  0.20150618     0.09000
C369        C  0.21374894  0.34071355  0.22951505    -0.17700
C370        C  0.33170478  0.22553473  0.22823999    -0.16900
C371        C  0.34439640  0.19619590  0.19915275     0.07200
C372        C  0.35545243  0.16113870  0.16433793     0.09000
C373        C  0.36205564  0.13105231  0.13402898    -0.17700
C374        C  0.11879478  0.12413178  0.36520184    -0.16900
C375        C  0.14954425  0.15475549  0.35981063     0.07200
C376        C  0.18514555  0.19022860  0.34994043     0.09000
C377        C  0.21481875  0.22028122  0.33859679    -0.17700
C378        C  0.11386507  0.63294655  0.12672135    -0.16900
C379        C  0.14340206  0.63990836  0.15720182     0.07200
C380        C  0.17879425  0.65078212  0.19136407     0.09000
C381        C  0.20906629  0.66241309  0.21961781    -0.17700
C382        C  0.35893415  0.87805820  0.12924025    -0.16900
C383        C  0.35155872  0.84553302  0.15794929     0.07200
C384        C  0.34001374  0.80769060  0.19101403     0.09000
C385        C  0.32743840  0.77621618  0.21896630    -0.17700
C386        C  0.11609083  0.87056696  0.35783786    -0.16900
C387        C  0.14675323  0.83977019  0.35268599     0.07200
C388        C  0.18276801  0.80453872  0.34360221     0.09000
C389        C  0.21297175  0.77512116  0.33242629    -0.17700
C390        C  0.86706464  0.62695690  0.11204026    -0.16900
C391        C  0.83690049  0.63292936  0.14215928     0.07200
C392        C  0.80367673  0.64334970  0.17855547     0.09000
C393        C  0.77657161  0.65509366  0.20979566    -0.17700
C394        C  0.65556894  0.76291027  0.21570928    -0.16900
C395        C  0.64151026  0.79201437  0.18613617     0.07200
C396        C  0.63044349  0.82767171  0.15081766     0.09000
C397        C  0.62478006  0.85910679  0.12068752    -0.17700
C398        C  0.86936544  0.87498758  0.34700076    -0.16900
C399        C  0.83978780  0.84372961  0.33967422     0.07200
C400        C  0.80613001  0.80661704  0.32948054     0.09000
C401        C  0.77804425  0.77484155  0.31932377    -0.17700
C402        C  0.21616037  0.22696773  0.68154201    -0.16900
C403        C  0.18808673  0.19574791  0.66996625     0.07200
C404        C  0.15452409  0.15894766  0.65865028     0.09000
C405        C  0.12509933  0.12763156  0.65104783    -0.17700
C406        C  0.33508206  0.23560977  0.79049448    -0.16900
C407        C  0.34842691  0.20669636  0.82064993     0.07200
C408        C  0.35958416  0.17156471  0.85657090     0.09000
C409        C  0.36596579  0.14058363  0.88708965    -0.17700
C410        C  0.21545146  0.34419510  0.79354338    -0.16900
C411        C  0.18808570  0.35586912  0.82450911     0.07200
C412        C  0.15510019  0.36661762  0.86089738     0.09000
C413        C  0.12550169  0.37328958  0.89133579    -0.17700
C414        C  0.23028132  0.66517908  0.79366759    -0.16900
C415        C  0.19967705  0.65196995  0.82128633     0.07200
C416        C  0.16218585  0.64067885  0.85340499     0.09000
C417        C  0.12958019  0.63410392  0.88097233    -0.17700
C418        C  0.22445885  0.78050493  0.67767949    -0.16900
C419        C  0.19419309  0.80962769  0.66492548     0.07200
C420        C  0.15839350  0.84479334  0.65342290     0.09000
C421        C  0.12760770  0.87531775  0.64630694    -0.17700
C422        C  0.33602163  0.79055927  0.79161417    -0.16900
C423        C  0.34705717  0.82152880  0.81958404     0.07200
C424        C  0.35753084  0.85773340  0.85322949     0.09000
C425        C  0.36400867  0.88825516  0.88301576    -0.17700
C426        C  0.63611408  0.12187579  0.88063812    -0.16900
C427        C  0.64283655  0.15438225  0.85176466     0.07200
C428        C  0.65352106  0.19207958  0.81827232     0.09000
C429        C  0.66567836  0.22326987  0.78984499    -0.17700
C430        C  0.77816219  0.22016127  0.67448812    -0.16900
C431        C  0.80801423  0.19073928  0.66243343     0.07200
C432        C  0.84437920  0.15627292  0.65203304     0.09000
C433        C  0.87577923  0.12645578  0.64588166    -0.17700
C434        C  0.87948777  0.36616539  0.88121283    -0.16900
C435        C  0.85046666  0.35803431  0.85047434     0.07200
C436        C  0.81600002  0.34607074  0.81563692     0.09000
C437        C  0.78619292  0.33406451  0.78698092    -0.17700
C438        C  0.66429159  0.77296269  0.78271439    -0.16900
C439        C  0.65162290  0.80277121  0.81134260     0.07200
C440        C  0.64024861  0.83873822  0.84514538     0.09000
C441        C  0.63340193  0.86944022  0.87479594    -0.17700
C442        C  0.78209548  0.65658238  0.77513850    -0.16900
C443        C  0.81358575  0.64447613  0.80236024     0.07200
C444        C  0.85057078  0.63515869  0.83576506     0.09000
C445        C  0.88118926  0.63027199  0.86585618    -0.17700
C446        C  0.87794326  0.87436598  0.64419063    -0.16900
C447        C  0.84683910  0.84423143  0.65036501     0.07200
C448        C  0.81039009  0.80966078  0.66038623     0.09000
C449        C  0.77985772  0.78033695  0.67133615    -0.17700
C450        C  0.62295916  0.61734247  0.66424180    -0.14800
C451        C  0.65301248  0.65287061  0.64966602    -0.30000
H452        H  0.62011954  0.60759631  0.70162888     0.14200
H453        H  0.65577895  0.66097917  0.61185463     0.14800
C454        C  0.62176992  0.34211702  0.63577487    -0.14800
C455        C  0.65752231  0.35734210  0.66394649    -0.30000
H456        H  0.61185274  0.30367345  0.63625746     0.14200
H457        H  0.66618861  0.39611218  0.66445630     0.14800
C458        C  0.36216849  0.66049836  0.67104003    -0.14800
C459        C  0.34887553  0.62328500  0.64324377    -0.30000
H460        H  0.39981665  0.67048256  0.67269306     0.14200
H461        H  0.31153023  0.61207659  0.64246801     0.14800
C462        C  0.66374640  0.63525602  0.34737657    -0.14800
C463        C  0.63096499  0.65126811  0.37852078    -0.30000
H464        H  0.67252267  0.59648426  0.34683127     0.14200
H465        H  0.62066456  0.68966067  0.37797795     0.14800
C466        C  0.36566010  0.34929992  0.62918040    -0.14800
C467        C  0.33276548  0.36530573  0.66017798    -0.30000
H468        H  0.37552875  0.31079301  0.62933405     0.14200
H469        H  0.32433955  0.40414777  0.66108332     0.14800
C470        C  0.37267006  0.65696755  0.37138870    -0.14800
C471        C  0.33708499  0.64114402  0.34337159    -0.30000
H472        H  0.38200280  0.69556256  0.37099298     0.14200
H473        H  0.32916911  0.60220629  0.34269687     0.14800
C474        C  0.63443842  0.34066313  0.33535473    -0.14800
C475        C  0.64724978  0.37795337  0.36328895    -0.30000
H476        H  0.59684337  0.33056532  0.33327104     0.14200
H477        H  0.68457258  0.38918859  0.36454591     0.14800
C478        C  0.37209775  0.38292248  0.34280947    -0.14800
C479        C  0.33925628  0.35033152  0.35787642    -0.30000
H480        H  0.37878156  0.38852728  0.30516357     0.14200
H481        H  0.33382778  0.34539926  0.39587596     0.14800
loop_ 
_geom_bond_atom_site_label_1 
_geom_bond_atom_site_label_2 
_geom_bond_distance 
_geom_bond_site_symmetry_2 
_ccdc_geom_bond_type 
C1           N19   1.351       .  A
C1           C38   1.459       .  S
C1          C478   1.472       .  S
N2           N19   1.326       .  A
N2           N24   1.321       .  A
N2          Co39   2.089       .  S
C3           N28   1.342       .  A
C3           C41   1.463       .  S
C3           H48   1.081       .  S
H4           C45   1.082       .  S
C5           N29   1.344       .  A
C5            C9   1.464       .  S
C5           H34   1.081       .  S
Co6          N24   2.090       .  S
Co6          N14   2.095       .  S
Co6          N46   2.095       .  S
Co6          N22   2.095       .  S
Co6         Cl50   2.457       .  S
N7           C45   1.341       .  A
N7           N14   1.321       .  A
N7           Co8   2.091       .  S
Co8          N11   2.088       .  S
Co8          N28   2.088       .  S
Co8          N15   2.088       .  S
Co8         Cl50   2.456       .  S
C9           N47   1.348       .  A
C9          C463   1.479       .  S
N10          N17   1.321       .  A
N10          N40   1.327       .  A
N10         Co43   2.096       .  S
N11          N29   1.322       .  A
N11          N47   1.325       .  A
N12          C41   1.351       .  A
N12          N22   1.327       .  A
H13          C38   1.082       .  S
N14          N35   1.327       .  A
N15          N33   1.321       .  A
N15          N20   1.326       .  A
C16          N20   1.350       .  A
C16          C44   1.459       .  S
C16         C450   1.472       .  S
N17          C32   1.343       .  A
N17         Co39   2.090       .  S
C18          N46   1.344       .  A
C18          C21   1.464       .  S
C18          H52   1.081       .  S
C21          N42   1.348       .  A
C21         C466   1.478       .  S
N22          N28   1.320       .  A
N23          C49   1.342       .  A
N23          N25   1.321       .  A
N23         Co39   2.091       .  S
N24          C38   1.342       .  A
N25          N53   1.328       .  A
N25         Co43   2.099       .  S
H26          C49   1.082       .  S
H27          C44   1.082       .  S
N29         Co43   2.098       .  S
N30          N42   1.325       .  A
N30          N46   1.322       .  A
N30         Co39   2.089       .  S
C31          N35   1.353       .  A
C31          C45   1.458       .  S
C31         C470   1.479       .  S
C32          C51   1.464       .  S
C32          H36   1.081       .  S
N33          C44   1.342       .  A
N33         Co43   2.092       .  S
C37          N53   1.354       .  A
C37          C49   1.458       .  S
C37         C454   1.482       .  S
Co39        Cl50   2.456       .  S
N40          C51   1.351       .  A
C41         C459   1.482       .  S
Co43        Cl50   2.456       .  S
C51         C475   1.483       .  S
C54          C55   1.543       .  S
C54          C60   1.542       .  S
C54          C58   1.539       .  S
C54         C451   1.514       .  S
C55          H62   1.086       .  S
C55          C56   1.366       .  D
C56          C57   1.534       .  S
C56         C442   1.445       .  S
C57          C61   1.532       .  S
C57          C59   1.535       .  S
C57          H63   1.112       .  S
C58          H64   1.086       .  S
C58          C59   1.365       .  D
C59         C438   1.444       .  S
C60          H65   1.086       .  S
C60          C61   1.363       .  D
C61         C449   1.444       .  S
C66          C67   1.544       .  S
C66          C72   1.542       .  S
C66          C70   1.542       .  S
C66         C455   1.520       .  S
C67          H74   1.086       .  S
C67          C68   1.367       .  D
C68          C69   1.534       .  S
C68         C429   1.448       .  S
C69          C73   1.533       .  S
C69          C71   1.533       .  S
C69          H75   1.112       .  S
C70          H76   1.086       .  S
C70          C71   1.364       .  D
C71         C437   1.446       .  S
C72          H77   1.086       .  S
C72          C73   1.365       .  D
C73         C430   1.445       .  S
C78          C79   1.540       .  S
C78          C84   1.543       .  S
C78          C82   1.542       .  S
C78         C458   1.517       .  S
C79          H86   1.086       .  S
C79          C80   1.362       .  D
C80          C81   1.532       .  S
C80         C422   1.441       .  S
C81          C85   1.533       .  S
C81          C83   1.534       .  S
C81          H87   1.112       .  S
C82          H88   1.086       .  S
C82          C83   1.366       .  D
C83         C414   1.443       .  S
C84          H89   1.086       .  S
C84          C85   1.367       .  D
C85         C418   1.447       .  S
C90          C91   1.540       .  S
C90          C96   1.540       .  S
C90          C94   1.545       .  S
C90         C467   1.515       .  S
C91          H98   1.086       .  S
C91          C92   1.363       .  D
C92          C93   1.532       .  S
C92         C410   1.440       .  S
C93          C97   1.534       .  S
C93          C95   1.533       .  S
C93          H99   1.112       .  S
C94         H100   1.086       .  S
C94          C95   1.368       .  D
C95         C406   1.447       .  S
C96         H101   1.086       .  S
C96          C97   1.364       .  D
C97         C402   1.444       .  S
N102        C107   1.355   1_455  A
N102        C106   1.355       .  A
N102        H134   1.034       .  S
N103        C110   1.353   1_545  A
N103        C111   1.353       .  A
N104        C109   1.355   1_455  A
N104        C108   1.354       .  A
N104        H135   1.034       .  S
N105        C112   1.352   1_545  A
N105        C113   1.353       .  A
C106        C114   1.388       .  A
C106        C122   1.419       .  A
C107        C123   1.419       .  A
C107        C115   1.388       .  A
C108        C116   1.388       .  A
C108        C125   1.418       .  A
C109        C124   1.418       .  A
C109        C117   1.388       .  A
C110        C122   1.416       .  A
C110        C118   1.387       .  A
C111        C125   1.416       .  A
C111        C119   1.387       .  A
C112        C120   1.387       .  A
C112        C123   1.415       .  A
C113        C121   1.387       .  A
C113        C124   1.415       .  A
C114        H126   1.082       .  S
C114        C115   1.376   1_455  A
C115        H127   1.082       .  S
C116        H128   1.082       .  S
C116        C117   1.375   1_455  A
C117        H129   1.082       .  S
C118        H130   1.082       .  S
C118        C119   1.374   1_565  A
C119        H131   1.082       .  S
C120        H132   1.082       .  S
C120        C121   1.372   1_565  A
C121        H133   1.082       .  S
C122        C421   1.457       .  S
C123        C446   1.454       .  S
C124        C433   1.455       .  S
C125        C405   1.454       .  S
C136        C137   1.544       .  S
C136        C142   1.540       .  S
C136        C140   1.541       .  S
C136        C462   1.517       .  S
C137        H144   1.086       .  S
C137        C138   1.367       .  D
C138        C139   1.533       .  S
C138        C394   1.445       .  S
C139        C143   1.534       .  S
C139        C141   1.533       .  S
C139        H145   1.112       .  S
C140        H146   1.086       .  S
C140        C141   1.363       .  D
C141        C393   1.443       .  S
C142        H147   1.086       .  S
C142        C143   1.365       .  D
C143        C401   1.445       .  S
C148        C149   1.541       .  S
C148        C154   1.542       .  S
C148        C152   1.544       .  S
C148        C471   1.518       .  S
C149        H156   1.086       .  S
C149        C150   1.363       .  D
C150        C151   1.533       .  S
C150        C381   1.443       .  S
C151        C155   1.533       .  S
C151        C153   1.534       .  S
C151        H157   1.112       .  S
C152        H158   1.086       .  S
C152        C153   1.366       .  D
C153        C385   1.448       .  S
C154        H159   1.086       .  S
C154        C155   1.366       .  D
C155        C389   1.444       .  S
N160        C165   1.354       .  A
N160        C164   1.353   1_554  A
N160        H192   1.031   1_554  S
N161        C168   1.353       .  A
N161        C169   1.353   1_455  A
N162        C167   1.355   1_556  A
N162        C166   1.355       .  A
N162        H193   1.033       .  S
N163        C170   1.353   1_655  A
N163        C171   1.352       .  A
C164        C172   1.388       .  A
C164        C180   1.419       .  A
C165        C181   1.419       .  A
C165        C173   1.388       .  A
C166        C174   1.388       .  A
C166        C183   1.419       .  A
C167        C182   1.419       .  A
C167        C175   1.388       .  A
C168        C180   1.418       .  A
C168        C176   1.387       .  A
C169        C183   1.417       .  A
C169        C177   1.387       .  A
C170        C178   1.387       .  A
C170        C181   1.416       .  A
C171        C179   1.388       .  A
C171        C182   1.416       .  A
C172        H184   1.082       .  S
C172        C173   1.374   1_556  A
C173        H185   1.082       .  S
C174        H186   1.082       .  S
C174        C175   1.375   1_556  A
C175        H187   1.082       .  S
C176        H188   1.082       .  S
C176        C177   1.374   1_455  A
C177        H189   1.082       .  S
C178        H190   1.082       .  S
C178        C179   1.372   1_455  A
C179        H191   1.082       .  S
C180        C417   1.454       .  S
C181        C378   1.454       .  S
C182        C390   1.453       .  S
C183        C445   1.456       .  S
C194        C195   1.541       .  S
C194        C200   1.541       .  S
C194        C198   1.542       .  S
C194        C479   1.514       .  S
C195        H202   1.086       .  S
C195        C196   1.365       .  D
C196        C197   1.534       .  S
C196        C370   1.444       .  S
C197        C201   1.532       .  S
C197        C199   1.534       .  S
C197        H203   1.112       .  S
C198        H204   1.086       .  S
C198        C199   1.366       .  D
C199        C369   1.446       .  S
C200        H205   1.086       .  S
C200        C201   1.362       .  D
C201        C377   1.443       .  S
N206        C211   1.354   1_545  A
N206        C210   1.354       .  A
N206        H238   1.037   1_545  S
N207        C214   1.352       .  A
N207        C215   1.352   1_655  A
N208        C213   1.354       .  A
N208        C212   1.354   1_565  A
N208        H239   1.037       .  S
N209        C216   1.352       .  A
N209        C217   1.352   1_655  A
C210        C218   1.388       .  A
C210        C226   1.416       .  A
C211        C227   1.416       .  A
C211        C219   1.387       .  A
C212        C220   1.388       .  A
C212        C229   1.415       .  A
C213        C228   1.415       .  A
C213        C221   1.387       .  A
C214        C226   1.413       .  A
C214        C222   1.387       .  A
C215        C229   1.413       .  A
C215        C223   1.387       .  A
C216        C224   1.387       .  A
C216        C227   1.413       .  A
C217        C225   1.386       .  A
C217        C228   1.413       .  A
C218        H230   1.082       .  S
C218        C219   1.376   1_545  A
C219        H231   1.082       .  S
C220        H232   1.082       .  S
C220        C221   1.375   1_545  A
C221        H233   1.082       .  S
C222        H234   1.082       .  S
C222        C223   1.375   1_655  A
C223        H235   1.082       .  S
C224        H236   1.082       .  S
C224        C225   1.374   1_655  A
C225        H237   1.082       .  S
C226        C362   1.454       .  S
C227        C398   1.454       .  S
C228        C386   1.454       .  S
C229        C374   1.452       .  S
N240        C245   1.353   1_554  A
N240        C244   1.355       .  A
N240        H272   1.033       .  S
N241        C248   1.354   1_545  A
N241        C249   1.353       .  A
N242        C247   1.356   1_554  A
N242        C246   1.354       .  A
N242        H273   1.033       .  S
N243        C250   1.352   1_545  A
N243        C251   1.353       .  A
C244        C252   1.388       .  A
C244        C260   1.418       .  A
C245        C261   1.418       .  A
C245        C253   1.389       .  A
C246        C254   1.389       .  A
C246        C263   1.420       .  A
C247        C262   1.419       .  A
C247        C255   1.387       .  A
C248        C260   1.417       .  A
C248        C256   1.386       .  A
C249        C263   1.418       .  A
C249        C257   1.388       .  A
C250        C258   1.387       .  A
C250        C261   1.416       .  A
C251        C259   1.387       .  A
C251        C262   1.416       .  A
C252        H264   1.082       .  S
C252        C253   1.374   1_554  A
C253        H265   1.082       .  S
C254        H266   1.082       .  S
C254        C255   1.376   1_554  A
C255        H267   1.082       .  S
C256        H268   1.082       .  S
C256        C257   1.374   1_565  A
C257        H269   1.082       .  S
C258        H270   1.082       .  S
C258        C259   1.373   1_565  A
C259        H271   1.082       .  S
C260        C382   1.458       .  S
C261        C425   1.451       .  S
C262        C409   1.458       .  S
C263        C373   1.454       .  S
N274        C279   1.356   1_554  A
N274        C278   1.354       .  A
N274        H306   1.035       .  S
N275        C282   1.353       .  A
N275        C283   1.353   1_655  A
N276        C281   1.354   1_554  A
N276        C280   1.355       .  A
N276        H307   1.034       .  S
N277        C284   1.352   1_455  A
N277        C285   1.351       .  A
C278        C286   1.388       .  A
C278        C294   1.418       .  A
C279        C295   1.417       .  A
C279        C287   1.387       .  A
C280        C288   1.388       .  A
C280        C297   1.418       .  A
C281        C296   1.417       .  A
C281        C289   1.388       .  A
C282        C294   1.416       .  A
C282        C290   1.387       .  A
C283        C297   1.416       .  A
C283        C291   1.387       .  A
C284        C292   1.386       .  A
C284        C295   1.413       .  A
C285        C293   1.388       .  A
C285        C296   1.414       .  A
C286        H298   1.082       .  S
C286        C287   1.374   1_554  A
C287        H299   1.082       .  S
C288        H300   1.082       .  S
C288        C289   1.375   1_554  A
C289        H301   1.082       .  S
C290        H302   1.082       .  S
C290        C291   1.374   1_655  A
C291        H303   1.082       .  S
C292        H304   1.082       .  S
C292        C293   1.372   1_655  A
C293        H305   1.082       .  S
C294        C361   1.455       .  S
C295        C434   1.455       .  S
C296        C413   1.450       .  S
C297        C366   1.456       .  S
C308        C309   1.542       .  S
C308        C314   1.543       .  S
C308        C312   1.541       .  S
C308        C474   1.519       .  S
C309        H316   1.086       .  S
C309        C310   1.366       .  D
C310        C311   1.534       .  S
C310        C358   1.445       .  S
C311        C315   1.533       .  S
C311        C313   1.533       .  S
C311        H317   1.112       .  S
C312        H318   1.086       .  S
C312        C313   1.362       .  D
C313        C354   1.444       .  S
C314        H319   1.086       .  S
C314        C315   1.367       .  D
C315        C365   1.445       .  S
N320        C325   1.354       .  A
N320        C324   1.355   1_554  A
N320        H352   1.037       .  S
N321        C328   1.353   1_565  A
N321        C329   1.352       .  A
N322        C327   1.355   1_556  A
N322        C326   1.354       .  A
N322        H353   1.037       .  S
N323        C330   1.351   1_565  A
N323        C331   1.352       .  A
C324        C332   1.387       .  A
C324        C340   1.416       .  A
C325        C341   1.417       .  A
C325        C333   1.388       .  A
C326        C334   1.388       .  A
C326        C343   1.416       .  A
C327        C342   1.416       .  A
C327        C335   1.387       .  A
C328        C340   1.414       .  A
C328        C336   1.386       .  A
C329        C343   1.414       .  A
C329        C337   1.387       .  A
C330        C338   1.387       .  A
C330        C341   1.413       .  A
C331        C339   1.387       .  A
C331        C342   1.413       .  A
C332        H344   1.082       .  S
C332        C333   1.375   1_556  A
C333        H345   1.082       .  S
C334        H346   1.082       .  S
C334        C335   1.375   1_556  A
C335        H347   1.082       .  S
C336        H348   1.082       .  S
C336        C337   1.375   1_545  A
C337        H349   1.082       .  S
C338        H350   1.082       .  S
C338        C339   1.374   1_545  A
C339        H351   1.082       .  S
C340        C426   1.457       .  S
C341        C357   1.453       .  S
C342        C397   1.454       .  S
C343        C441   1.453       .  S
C354        C355   1.207       .  T
C355        C356   1.414       .  S
C356        C357   1.207       .  T
C358        C359   1.208       .  T
C359        C360   1.415       .  S
C360        C361   1.208       .  T
C362        C363   1.209       .  T
C363        C364   1.416       .  S
C364        C365   1.208       .  T
C366        C367   1.209       .  T
C367        C368   1.417       .  S
C368        C369   1.208       .  T
C370        C371   1.207       .  T
C371        C372   1.414       .  S
C372        C373   1.208       .  T
C374        C375   1.207       .  T
C375        C376   1.413       .  S
C376        C377   1.206       .  T
C378        C379   1.207       .  T
C379        C380   1.414       .  S
C380        C381   1.207       .  T
C382        C383   1.210       .  T
C383        C384   1.418       .  S
C384        C385   1.210       .  T
C386        C387   1.208       .  T
C387        C388   1.415       .  S
C388        C389   1.207       .  T
C390        C391   1.207       .  T
C391        C392   1.413       .  S
C392        C393   1.207       .  T
C394        C395   1.208       .  T
C395        C396   1.415       .  S
C396        C397   1.208       .  T
C398        C399   1.208       .  T
C399        C400   1.415       .  S
C400        C401   1.208       .  T
C402        C403   1.207       .  T
C403        C404   1.415       .  S
C404        C405   1.208       .  T
C406        C407   1.209       .  T
C407        C408   1.418       .  S
C408        C409   1.210       .  T
C410        C411   1.205       .  T
C411        C412   1.411       .  S
C412        C413   1.206       .  T
C414        C415   1.207       .  T
C415        C416   1.414       .  S
C416        C417   1.207       .  T
C418        C419   1.209       .  T
C419        C420   1.418       .  S
C420        C421   1.210       .  T
C422        C423   1.205       .  T
C423        C424   1.411       .  S
C424        C425   1.206       .  T
C426        C427   1.210       .  T
C427        C428   1.418       .  S
C428        C429   1.209       .  T
C430        C431   1.208       .  T
C431        C432   1.415       .  S
C432        C433   1.208       .  T
C434        C435   1.209       .  T
C435        C436   1.416       .  S
C436        C437   1.208       .  T
C438        C439   1.207       .  T
C439        C440   1.414       .  S
C440        C441   1.207       .  T
C442        C443   1.208       .  T
C443        C444   1.416       .  S
C444        C445   1.209       .  T
C446        C447   1.208       .  T
C447        C448   1.414       .  S
C448        C449   1.207       .  T
C450        H452   1.086       .  S
C450        C451   1.343       .  D
C451        H453   1.088       .  S
C454        H456   1.086       .  S
C454        C455   1.345       .  D
C455        H457   1.087       .  S
C458        H460   1.086       .  S
C458        C459   1.345       .  D
C459        H461   1.086       .  S
C462        H464   1.086       .  S
C462        C463   1.344       .  D
C463        H465   1.086       .  S
C466        H468   1.086       .  S
C466        C467   1.343       .  D
C467        H469   1.087       .  S
C470        H472   1.086       .  S
C470        C471   1.344       .  D
C471        H473   1.087       .  S
C474        H476   1.086       .  S
C474        C475   1.345       .  D
C475        H477   1.086       .  S
C478        H480   1.086       .  S
C478        C479   1.343       .  D
C479        H481   1.088       .  S
