geometry optimzed in LAMMPS
_audit_creation_date              2020-11-30 
_audit_creation_method            'lammps2cif' 
_symmetry_space_group_name_H-M    'P1' 
_symmetry_Int_Tables_number       1 
_symmetry_cell_setting            triclinic 
loop_ 
_symmetry_equiv_pos_as_xyz 
  x,y,z 
_cell_length_a                    29.97564048860682 
_cell_length_b                    30.047151154199465 
_cell_length_c                    29.431770201747746 
_cell_angle_alpha                 89.98571776699295 
_cell_angle_beta                  90.72595788734816 
_cell_angle_gamma                 89.17611035784333 
loop_ 
_atom_site_label 
_atom_site_type_symbol 
_atom_site_fract_x 
_atom_site_fract_y 
_atom_site_fract_z 
_atom_site_charge 
C1          C  0.36395238  0.64087017  0.63247313    -0.02420
N2          N  0.44112798  0.42092387  0.54844851    -0.06050
N3          N  0.42873363  0.38707232  0.57421980    -0.58170
N4          N  0.41143231  0.45535842  0.44618518    -0.05730
N5          N  0.37800130  0.44284027  0.41969576    -0.60300
N6          N  0.44412861  0.42562188  0.44414938    -0.05330
N7          N  0.43408500  0.39340628  0.41531324    -0.58150
N8          N  0.41045225  0.45276637  0.54957127    -0.05010
N9          N  0.37714882  0.44092533  0.57600543    -0.60650
C10         C  0.38851773  0.39962855  0.59153293     0.96120
C11         C  0.39260126  0.40439306  0.40008268     0.95900
N12         N  0.44135038  0.59422919  0.44844317    -0.06240
N13         N  0.43055786  0.62636036  0.41916130    -0.58750
N14         N  0.41224762  0.56077834  0.55373785    -0.04360
N15         N  0.38132194  0.57097406  0.58403820    -0.60000
N16         N  0.44318241  0.59151563  0.55374766    -0.06270
N17         N  0.43337547  0.62281973  0.58378275    -0.59020
N18         N  0.41020565  0.56372430  0.44825001    -0.04000
N19         N  0.37797623  0.57500521  0.41899704    -0.60090
Mn20       Mn  0.41045513  0.50838704  0.49950883     1.18440
C21         C  0.39070009  0.61429366  0.40053827     0.98210
C22         C  0.39469500  0.60999638  0.60308459     0.98870
N23         N  0.54986832  0.42385857  0.44516284    -0.06290
N24         N  0.55922308  0.39286181  0.41475652    -0.62600
N25         N  0.58099531  0.45186042  0.55089052    -0.05090
N26         N  0.61175453  0.44113843  0.58181953    -0.63270
N27         N  0.54951962  0.42166069  0.54996149    -0.05790
N28         N  0.55833004  0.39006653  0.58014650    -0.62860
N29         N  0.58172865  0.45347097  0.44636038    -0.04690
N30         N  0.61352329  0.44242387  0.41726885    -0.63550
Mn31       Mn  0.49632350  0.42254951  0.49707087     1.10660
C32         C  0.59909572  0.40435802  0.39721511     0.99430
C33         C  0.59671500  0.40300380  0.60072048     0.99500
N34         N  0.55076145  0.59090855  0.55329257    -0.05800
N35         N  0.56172027  0.62207239  0.58316275    -0.61180
N36         N  0.57962083  0.55972140  0.44693946    -0.05120
N37         N  0.61022693  0.56885677  0.41638214    -0.57900
N38         N  0.54963770  0.59213389  0.44853521    -0.06430
N39         N  0.56052801  0.62420843  0.42008031    -0.60740
N40         N  0.58175808  0.55940755  0.55268878    -0.05420
N41         N  0.61394629  0.56886789  0.58225787    -0.57930
Mn42       Mn  0.49619783  0.59301314  0.50097815     1.20190
Mn43       Mn  0.58187137  0.50619995  0.49932279     1.10090
Cl44       Cl  0.49615735  0.50755049  0.49939875    -0.85900
C45         C  0.60135887  0.60807136  0.60162562     0.96430
C46         C  0.59838692  0.60953261  0.39954914     0.96230
C47         C  0.62322638  0.37442804  0.63523709    -0.02420
C48         C  0.36180311  0.37302363  0.37348239    -0.02420
C49         C  0.62989442  0.63871226  0.37032887    -0.02420
C50         C  0.36169958  0.64374628  0.36679480    -0.02420
C51         C  0.62759057  0.37411474  0.36539908    -0.02420
C52         C  0.35880735  0.37134852  0.62392194    -0.02420
C53         C  0.63121631  0.63705774  0.63380032    -0.02420
C54         C  0.26182770  0.24200944  0.00191139     0.00630
C55         C  0.22820837  0.27297775  0.00099727     0.00630
C56         C  0.22610588  0.00486850  0.26190266     0.00630
C57         C  0.25703136  0.00336721  0.22842509     0.00630
C58         C  0.99613853  0.23730895  0.26771187     0.00630
C59         C  0.99719502  0.27162954  0.23800917     0.00630
C60         C  0.49175529  0.26791471  0.27321175     0.00630
C61         C  0.49102487  0.24070870  0.23618335     0.00630
C62         C  0.26508240  0.25828116  0.49723330     0.00630
C63         C  0.23504586  0.22398100  0.49539823     0.00630
C64         C  0.25790157  0.50739528  0.27248619     0.00630
C65         C  0.22874193  0.50567566  0.23646231     0.00630
C66         C  0.21613960  0.74745853  0.99969989     0.00630
C67         C  0.25171883  0.77622528  0.00192999     0.00630
C68         C  0.73855325  0.23800978  0.00299667     0.00630
C69         C  0.76928274  0.27121231  0.00288897     0.00630
C70         C  0.00298961  0.26232891  0.77020084     0.00630
C71         C  0.00289191  0.22964523  0.73832070     0.00630
C72         C  0.71766668  0.50579146  0.25484811     0.00630
C73         C  0.75220873  0.50816933  0.22466797     0.00630
C74         C  0.27847299  0.50639679  0.74349365     0.00630
C75         C  0.24338289  0.50419468  0.77310624     0.00630
C76         C  0.86411816  0.63641814  0.86401489    -0.02420
N77         N  0.94367076  0.55767070  0.91325733    -0.06050
N78         N  0.91436459  0.56806024  0.88089999    -0.58170
N79         N  0.04723556  0.58925088  0.94715691    -0.05730
N80         N  0.07915693  0.61828310  0.93940974    -0.60300
N81         N  0.04633562  0.55936246  0.91447101    -0.05330
N82         N  0.07678793  0.56826143  0.88380075    -0.58150
N83         N  0.94373747  0.58896373  0.94452488    -0.05010
N84         N  0.91454418  0.62077087  0.93388882    -0.60650
C85         C  0.89618956  0.60770472  0.89395670     0.96120
C86         C  0.09812898  0.60464795  0.89996912     0.95900
N87         N  0.04659080  0.55939224  0.08597562    -0.06240
N88         N  0.07609923  0.56958204  0.11794490    -0.58750
N89         N  0.94230394  0.58878145  0.05225060    -0.04360
N90         N  0.91212981  0.61979215  0.06167588    -0.60000
N91         N  0.94448784  0.55880226  0.08487166    -0.06270
N92         N  0.91631672  0.56939867  0.11742667    -0.59020
N93         N  0.04241206  0.59229444  0.05675696    -0.04000
N94         N  0.06671365  0.62625370  0.07009668    -0.60090
Mn95       Mn  0.99398898  0.59063067  0.99985878     1.18440
C96         C  0.08915793  0.61146367  0.10762370     0.98210
C97         C  0.89543152  0.60693713  0.10209974     0.98870
N98         N  0.05199365  0.45475972  0.91426616    -0.06290
N99         N  0.08340455  0.44761012  0.88361782    -0.62600
N100        N  0.94855257  0.41837690  0.94423154    -0.05090
N101        N  0.92075392  0.38573995  0.93427862    -0.63270
N102        N  0.94692143  0.44916105  0.91236916    -0.05790
N103        N  0.91763014  0.43762595  0.88043079    -0.62860
N104        N  0.05167703  0.42200698  0.94390007    -0.04690
N105        N  0.08152638  0.39116472  0.93249156    -0.63550
Mn106      Mn  0.99678002  0.50520647  0.91251185     1.10660
C107        C  0.10172351  0.40736054  0.89479084     0.99430
C108        C  0.90098477  0.39788316  0.89425894     0.99500
N109        N  0.94593073  0.45291211  0.08367820    -0.05800
N110        N  0.91465364  0.44479857  0.11387295    -0.61180
N111        N  0.05300363  0.42437553  0.05215246    -0.05120
N112        N  0.08477465  0.39457763  0.06114486    -0.57900
N113        N  0.04944039  0.45279998  0.08596129    -0.06430
N114        N  0.07730975  0.44131061  0.11934542    -0.60740
N115        N  0.94832944  0.42046591  0.05373806    -0.05420
N116        N  0.91924027  0.38939001  0.06428090    -0.57930
Mn117      Mn  0.99671372  0.50568092  0.08602336     1.20190
Mn118      Mn  0.00042045  0.42024872  0.99868608     1.10090
Cl119      Cl  0.99668465  0.50543046  0.99922056    -0.85900
C120        C  0.89784068  0.40469026  0.10196345     0.96430
C121        C  0.09957249  0.40483153  0.10359063     0.96230
C122        C  0.86801153  0.37626137  0.13397584    -0.02420
C123        C  0.13000434  0.37729856  0.86255620    -0.02420
C124        C  0.12942099  0.63268218  0.86999311    -0.02420
C125        C  0.86955521  0.36691109  0.86545173    -0.02420
C126        C  0.86390291  0.63532233  0.13089506    -0.02420
C127        C  0.72686819  0.50236188  0.73890363     0.00630
C128        C  0.76269624  0.50023336  0.76806078     0.00630
C129        C  0.12455030  0.63879323  0.13456299    -0.02420
C130        C  0.12690044  0.37280338  0.13479363    -0.02420
C131        C  0.23150840  0.99774201  0.73823035     0.00630
C132        C  0.26305367  0.00019410  0.77214530     0.00630
C133        C  0.49853526  0.76881553  0.23134681     0.00630
C134        C  0.49789412  0.73611128  0.26354820     0.00630
C135        C  0.49136860  0.26450383  0.72661355     0.00630
C136        C  0.49122137  0.22820234  0.75575432     0.00630
C137        C  0.62717429  0.14222066  0.87246216    -0.02420
N138        N  0.55293872  0.92246390  0.95231294    -0.06050
N139        N  0.56277154  0.89133333  0.92193549    -0.58170
N140        N  0.58187932  0.95534218  0.05700123    -0.05730
N141        N  0.61319551  0.94378881  0.08709298    -0.60300
N142        N  0.54947560  0.92621627  0.05797425    -0.05330
N143        N  0.55751525  0.89576562  0.08943370    -0.58150
N144        N  0.58302256  0.95392403  0.95168778    -0.05010
N145        N  0.61370017  0.94457272  0.92094246    -0.60650
C146        C  0.60069443  0.90547760  0.90200368     0.96120
C147        C  0.59748002  0.90660665  0.10778642     0.95900
N148        N  0.54943738  0.09312414  0.05488478    -0.06240
N149        N  0.55906204  0.12599923  0.08300690    -0.58750
N150        N  0.57915337  0.06127317  0.94951029    -0.04360
N151        N  0.60989948  0.07138689  0.91949425    -0.60000
N152        N  0.54828418  0.09293539  0.95056056    -0.06270
N153        N  0.55861640  0.12534293  0.92205380    -0.59020
N154        N  0.58250864  0.06381788  0.05421759    -0.04000
N155        N  0.61537475  0.07711339  0.08149785    -0.60090
Mn156      Mn  0.58270174  0.00840008  0.00311961     1.18440
C157        C  0.60031242  0.11609175  0.09986199     0.98210
C158        C  0.59711810  0.11154138  0.90201334     0.98870
N159        N  0.44362004  0.92155832  0.05442969    -0.06290
N160        N  0.43244952  0.88886862  0.08213555    -0.62600
N161        N  0.41381200  0.95097680  0.95065568    -0.05090
N162        N  0.38141379  0.93739187  0.92338128    -0.63270
N163        N  0.44724220  0.92211118  0.94988219    -0.05790
N164        N  0.43876987  0.88944305  0.92110457    -0.62860
N165        N  0.41273321  0.95307909  0.05486296    -0.04690
N166        N  0.38068371  0.94272774  0.08339475    -0.63550
Mn167      Mn  0.49861703  0.92247479  0.00366379     1.10660
C168        C  0.39321093  0.90251498  0.10077037     0.99430
C169        C  0.39744551  0.89910366  0.90457809     0.99500
N170        N  0.44007936  0.09107382  0.95184261    -0.05800
N171        N  0.42794893  0.12360268  0.92400304    -0.61180
N172        N  0.41080214  0.05929925  0.05390275    -0.05120
N173        N  0.37852516  0.06940207  0.08254922    -0.57900
N174        N  0.44172325  0.09002028  0.05519842    -0.06430
N175        N  0.43086500  0.12122418  0.08486933    -0.60740
N176        N  0.41100825  0.05862203  0.94955047    -0.05420
N177        N  0.37945538  0.06810150  0.91893949    -0.57930
Mn178      Mn  0.49481632  0.09241125  0.00326066     1.20190
Mn179      Mn  0.41137542  0.00558102  0.00207251     1.10090
Cl180      Cl  0.49692182  0.00732089  0.00297912    -0.85900
C181        C  0.39090810  0.10848197  0.90239495     0.96430
C182        C  0.39128866  0.10819270  0.10200901     0.96230
C183        C  0.62809992  0.87274303  0.13317854    -0.02420
C184        C  0.36828190  0.86729468  0.87654395    -0.02420
C185        C  0.36252673  0.13709544  0.86914766    -0.02420
C186        C  0.62859373  0.87816740  0.86723644    -0.02420
C187        C  0.36328121  0.87219776  0.13018175    -0.02420
C188        C  0.49780475  0.73920364  0.73437279     0.00630
C189        C  0.49748513  0.77043521  0.76801908     0.00630
C190        C  0.36222276  0.13660873  0.13432456    -0.02420
C191        C  0.62757039  0.14601624  0.13333192    -0.02420
C192        C  0.99501916  0.73816782  0.23538036     0.00630
C193        C  0.99266270  0.76922962  0.26895375     0.00630
C194        C  0.72044396  0.00724096  0.24036005     0.00630
C195        C  0.75826388  0.00678281  0.26786377     0.00630
C196        C  0.76169412  0.24320452  0.50270249     0.00630
C197        C  0.73336453  0.27955462  0.50340069     0.00630
C198        C  0.26016846  0.74369903  0.49806018     0.00630
C199        C  0.22761150  0.77583588  0.50054493     0.00630
C200        C  0.86092240  0.14081441  0.36819944    -0.02420
N201        N  0.93474670  0.05812748  0.41924153    -0.06050
N202        N  0.90440547  0.06907684  0.38811977    -0.58170
N203        N  0.04271133  0.08535530  0.44897032    -0.05730
N204        N  0.07606314  0.11252302  0.44060202    -0.60300
N205        N  0.03511875  0.05936260  0.41405474    -0.05330
N206        N  0.06017774  0.07132800  0.38002526    -0.58150
N207        N  0.93919634  0.09056127  0.44897698    -0.05010
N208        N  0.91223992  0.12421252  0.43782824    -0.60650
C209        C  0.89004834  0.11050314  0.39991468     0.96120
C210        C  0.08792746  0.10229071  0.39747397     0.95900
N211        N  0.04687589  0.05552107  0.58746170    -0.06240
N212        N  0.07827421  0.06439218  0.61807662    -0.58750
N213        N  0.94350654  0.09140884  0.55689841    -0.04360
N214        N  0.91458213  0.12381984  0.56626974    -0.60000
N215        N  0.94565649  0.06207301  0.59009080    -0.06270
N216        N  0.91996018  0.07532099  0.62363000    -0.59020
N217        N  0.04622969  0.08612620  0.55549682    -0.04000
N218        N  0.07722109  0.11597509  0.56377861    -0.60090
Mn219      Mn  0.99299305  0.08905320  0.50253609     1.18440
C220        C  0.09762281  0.10217566  0.60275884     0.98210
C221        C  0.89911197  0.11280157  0.60775498     0.98870
N222        N  0.03978360  0.95236685  0.41429526    -0.06290
N223        N  0.07004481  0.94408062  0.38266136    -0.62600
N224        N  0.93803401  0.91957198  0.44762081    -0.05090
N225        N  0.91006667  0.88732563  0.43694780    -0.63270
N226        N  0.93643459  0.95060938  0.41605469    -0.05790
N227        N  0.90771085  0.93954325  0.38349776    -0.62860
N228        N  0.04175345  0.92133843  0.44598507    -0.04690
N229        N  0.07327655  0.89178301  0.43586935    -0.63550
Mn230      Mn  0.98605560  0.00502378  0.41511060     1.10660
C231        C  0.09154033  0.90611184  0.39637748     0.99430
C232        C  0.89089250  0.89987949  0.39670197     0.99500
N233        N  0.93942652  0.95296363  0.58856251    -0.05800
N234        N  0.90891393  0.94394968  0.61961270    -0.61180
N235        N  0.04367002  0.91835858  0.55706500    -0.05120
N236        N  0.07331141  0.88664354  0.56789263    -0.57900
N237        N  0.04413497  0.94962592  0.58835839    -0.06430
N238        N  0.07443370  0.93992905  0.62008180    -0.60740
N239        N  0.93961645  0.92153029  0.55726040    -0.05420
N240        N  0.90966272  0.89113511  0.56710872    -0.57930
Mn241      Mn  0.99369931  0.00481222  0.58960376     1.20190
Mn242      Mn  0.99095674  0.91910962  0.50203361     1.10090
Cl243      Cl  0.99049935  0.00420362  0.50241220    -0.85900
C244        C  0.89002200  0.90491784  0.60616624     0.96430
C245        C  0.09285804  0.90040213  0.60752585     0.96230
C246        C  0.85953499  0.86977288  0.36717725    -0.02420
C247        C  0.12384835  0.87749371  0.36596947    -0.02420
C248        C  0.12550516  0.87120576  0.63781168    -0.02420
C249        C  0.86499478  0.13989641  0.63570674    -0.02420
C250        C  0.86172571  0.87382508  0.63764386    -0.02420
C251        C  0.72482415  0.74577732  0.50393632     0.00630
C252        C  0.75655620  0.77775181  0.50441003     0.00630
C253        C  0.12111960  0.12834220  0.36860801    -0.02420
C254        C  0.13094972  0.13050776  0.63090836    -0.02420
C255        C  0.99598141  0.72896631  0.75922727     0.00630
C256        C  0.99732084  0.76183356  0.72773136     0.00630
C257        C  0.72816234  0.01312884  0.76754861     0.00630
C258        C  0.76398803  0.00839816  0.73870631     0.00630
C259        C  0.75928172  0.73715723  0.99689830     0.00630
C260        C  0.72863074  0.77188836  0.99662591     0.00630
C261        C  0.89438481  0.84453329  0.66706583    -0.05400
C262        C  0.88760337  0.79802249  0.67246888    -0.32830
C263        C  0.91996190  0.77009265  0.69235850     0.36420
C264        C  0.95764646  0.78868734  0.71297804    -0.05760
C265        C  0.96142922  0.83515304  0.71411668    -0.32730
C266        C  0.93118310  0.86287235  0.69105884     0.36330
H267        H  0.85812866  0.78196805  0.65933858     0.16700
O268        O  0.91634398  0.72484023  0.68763993    -0.60220
H269        H  0.98952140  0.85025036  0.73141087     0.16710
O270        O  0.93733762  0.90790359  0.69379874    -0.60320
H271        H  0.93159245  0.91623965  0.72582088     0.43710
H272        H  0.88924754  0.71662288  0.70455382     0.43660
C273        C  0.83040730  0.90328516  0.66815059    -0.05400
C274        C  0.79568411  0.92900542  0.64720844    -0.32830
C275        C  0.76494915  0.95419528  0.67304053     0.36420
C276        C  0.77497872  0.96315293  0.71915510    -0.05760
C277        C  0.80991242  0.93872602  0.73972330    -0.32730
C278        C  0.83262736  0.90510635  0.71657012     0.36330
H279        H  0.79145150  0.92836849  0.61060476     0.16700
O280        O  0.73071786  0.97687315  0.65141619    -0.60220
H281        H  0.82108757  0.94664146  0.77386907     0.16710
O282        O  0.85698119  0.87550185  0.74246964    -0.60320
H283        H  0.83651227  0.85055194  0.74831460     0.43710
H284        H  0.74492037  0.00088510  0.63383943     0.43660
C285        C  0.83296104  0.84197223  0.60724771    -0.05400
C286        C  0.78615309  0.83742306  0.61300549    -0.32830
C287        C  0.75987223  0.81444085  0.58157787     0.36420
C288        C  0.78051747  0.79093418  0.54646088    -0.05760
C289        C  0.82708152  0.78748872  0.54596527    -0.32730
C290        C  0.85329710  0.81243580  0.57551713     0.36330
H291        H  0.76869337  0.85219594  0.64114659     0.16700
O292        O  0.71427470  0.81873161  0.58303108    -0.60220
H293        H  0.84341210  0.76753712  0.52018072     0.16710
O294        O  0.89881250  0.80673735  0.57371329    -0.60320
H295        H  0.90505069  0.77534561  0.58247322     0.43710
H296        H  0.70521017  0.80195085  0.61035489     0.43660
C297        C  0.83389528  0.10859523  0.66146439    -0.05400
C298        C  0.81123476  0.12273009  0.70090996    -0.32830
C299        C  0.79288531  0.09150809  0.73099461     0.36420
C300        C  0.79263794  0.04559568  0.71918943    -0.05760
C301        C  0.81974714  0.03374926  0.68235393    -0.32730
C302        C  0.83108160  0.06358932  0.64967501     0.36330
H303        H  0.81275481  0.15723478  0.71131610     0.16700
O304        O  0.78506875  0.10554842  0.77443139    -0.60220
H305        H  0.83126425  0.00054538  0.67599837     0.16710
O306        O  0.83767194  0.04851273  0.60593118    -0.60320
H307        H  0.85622655  0.02092568  0.60752493     0.43710
H308        H  0.81044446  0.09377809  0.79299321     0.43660
C309        C  0.03922379  0.77688830  0.70718277    -0.05400
C310        C  0.07000996  0.80054566  0.73323051    -0.32830
C311        C  0.10006582  0.82909656  0.71249747     0.36420
C312        C  0.09700028  0.83747640  0.66460678    -0.05760
C313        C  0.06827672  0.80999284  0.63903492    -0.32730
C314        C  0.04072765  0.77941197  0.65969111     0.36330
H315        H  0.06934418  0.79864103  0.76997850     0.16700
O316        O  0.13185752  0.84778893  0.73999832    -0.60220
H317        H  0.06758926  0.81147440  0.60234959     0.16710
O318        O  0.01314302  0.75370262  0.63329683    -0.60320
H319        H  0.99021781  0.77445755  0.62049045     0.43710
H320        H  0.15752600  0.82662012  0.73961593     0.43660
C321        C  0.82916719  0.84352750  0.39962569    -0.05400
C322        C  0.80729627  0.86760561  0.43404222    -0.32830
C323        C  0.77898663  0.84684607  0.46422945     0.36420
C324        C  0.77404842  0.80023964  0.46323566    -0.05760
C325        C  0.79338742  0.77605912  0.42782483    -0.32730
C326        C  0.81857588  0.79748309  0.39470150     0.36330
H327        H  0.81157963  0.90323865  0.43698617     0.16700
O328        O  0.75815687  0.87229483  0.49656067    -0.60220
H329        H  0.78961734  0.74034295  0.42593660     0.16710
O330        O  0.82982832  0.77375761  0.35653415    -0.60320
H331        H  0.84825475  0.74802288  0.36718724     0.43710
H332        H  0.72705099  0.87631892  0.48527485     0.43660
C333        C  0.20351142  0.79300709  0.45970108    -0.05400
C334        C  0.22545668  0.81641117  0.42592770    -0.32830
C335        C  0.20116811  0.84048919  0.39305977     0.36420
C336        C  0.15378554  0.84643968  0.39702708    -0.05760
C337        C  0.13263428  0.81878376  0.42885646    -0.32730
C338        C  0.15673110  0.79196562  0.45892616     0.36330
H339        H  0.26156551  0.81639032  0.42510337     0.16700
O340        O  0.22450617  0.85602731  0.35676772    -0.60220
H341        H  0.09672250  0.81608906  0.42923413     0.16710
O342        O  0.13402215  0.76629999  0.48918416    -0.60320
H343        H  0.13409021  0.73600820  0.47581833     0.43710
H344        H  0.22198300  0.83254356  0.33323324     0.43660
C345        C  0.21210201  0.79786299  0.54308534    -0.05400
C346        C  0.20944312  0.84461480  0.54258010    -0.32830
C347        C  0.18189720  0.86809650  0.57239365     0.36420
C348        C  0.15730589  0.84513678  0.60548048    -0.05760
C349        C  0.16513256  0.79848906  0.60953333    -0.32730
C350        C  0.19034072  0.77484382  0.57764021     0.36330
H351        H  0.22616249  0.86302050  0.51624322     0.16700
O352        O  0.17786799  0.91347619  0.56788819    -0.60220
H353        H  0.15070875  0.77926691  0.63650920     0.16710
O354        O  0.19142586  0.72923303  0.57932447    -0.60320
H355        H  0.16357765  0.71964743  0.56392337     0.43710
H356        H  0.20847305  0.92511748  0.57170923     0.43660
C357        C  0.78469535  0.22834621  0.46036620    -0.05400
C358        C  0.76233979  0.20270687  0.42779211    -0.32830
C359        C  0.78528601  0.17836874  0.39483234     0.36420
C360        C  0.83252381  0.17341066  0.39797244    -0.05760
C361        C  0.85473793  0.20160212  0.42930235    -0.32730
C362        C  0.83146474  0.22941068  0.45906257     0.36330
H363        H  0.72721405  0.19716023  0.42993529     0.16700
O364        O  0.76088484  0.16150772  0.35913090    -0.60220
H365        H  0.89077959  0.20285331  0.43027494     0.16710
O366        O  0.85498997  0.25446121  0.48979958    -0.60320
H367        H  0.85363023  0.28522887  0.47761537     0.43710
H368        H  0.73850014  0.14151227  0.37255698     0.43660
C369        C  0.77632562  0.21699506  0.54392711    -0.05400
C370        C  0.79507469  0.23779173  0.58217556    -0.32830
C371        C  0.82076420  0.21360885  0.61413277     0.36420
C372        C  0.83311138  0.16852527  0.60537635    -0.05760
C373        C  0.81069375  0.14731525  0.56932200    -0.32730
C374        C  0.78145513  0.17039181  0.54023036     0.36330
H375        H  0.79146924  0.27306852  0.58703919     0.16700
O376        O  0.83325211  0.23477819  0.65343174    -0.60220
H377        H  0.81613078  0.11241816  0.56278211     0.16710
O378        O  0.75862253  0.14715736  0.50738942    -0.60320
H379        H  0.78162111  0.13247740  0.48833201     0.43710
H380        H  0.80745637  0.23204020  0.67394899     0.43660
C381        C  0.83042660  0.89999268  0.33456703    -0.05400
C382        C  0.85213304  0.92919587  0.30459035    -0.32830
C383        C  0.82848257  0.96052060  0.27814796     0.36420
C384        C  0.78185608  0.96461045  0.28182841    -0.05760
C385        C  0.75965793  0.93333955  0.30797873    -0.32730
C386        C  0.78278738  0.89990872  0.33181994     0.36330
H387        H  0.88807731  0.92776978  0.30150232     0.16700
O388        O  0.85131761  0.98761122  0.24926859    -0.60220
H389        H  0.72418154  0.93597575  0.31225947     0.16710
O390        O  0.75761338  0.86787796  0.35187405    -0.60320
H391        H  0.75460279  0.84412904  0.32868066     0.43710
H392        H  0.87136735  0.00551496  0.26889275     0.43660
C393        C  0.77703282  0.04652662  0.29153714    -0.05400
C394        C  0.80640591  0.07441477  0.26891234    -0.32830
C395        C  0.82781435  0.10926211  0.29128637     0.36420
C396        C  0.83057845  0.10941510  0.33957166    -0.05760
C397        C  0.80402467  0.07832226  0.36276471    -0.32730
C398        C  0.77577629  0.04920441  0.33930251     0.36330
H399        H  0.81425403  0.06866389  0.23363826     0.16700
O400        O  0.84299890  0.14398828  0.26555839    -0.60220
H401        H  0.80414116  0.07776062  0.39957928     0.16710
O402        O  0.74974948  0.02087280  0.36366084    -0.60320
H403        H  0.71943620  0.03451406  0.36272527     0.43710
H404        H  0.86174801  0.13088825  0.24129487     0.43660
C405        C  0.03215347  0.79462484  0.28533463    -0.05400
C406        C  0.03199879  0.84094908  0.27940584    -0.32830
C407        C  0.06152914  0.86794349  0.30399915     0.36420
C408        C  0.09392557  0.84857767  0.33404933    -0.05760
C409        C  0.09718523  0.80156917  0.33425998    -0.32730
C410        C  0.06422255  0.77551401  0.31464706     0.36330
H411        H  0.00688478  0.85663965  0.25772965     0.16700
O412        O  0.05822937  0.91320250  0.29841401    -0.60220
H413        H  0.12321346  0.78364603  0.35241694     0.16710
O414        O  0.06112516  0.73235482  0.32862625    -0.60320
H415        H  0.04978653  0.73368316  0.36011854     0.43710
H416        H  0.06776474  0.91915644  0.26686717     0.43660
C417        C  0.95060745  0.78299542  0.29093126    -0.05400
C418        C  0.94980192  0.78135518  0.33836681    -0.32830
C419        C  0.92033446  0.80798799  0.36293039     0.36420
C420        C  0.88976092  0.83711461  0.34005266    -0.05760
C421        C  0.88682697  0.83333663  0.29202002    -0.32730
C422        C  0.91789770  0.80812613  0.26761878     0.36330
H423        H  0.97437044  0.76146318  0.35681322     0.16700
O424        O  0.92186505  0.80512229  0.40943728    -0.60220
H425        H  0.86144895  0.85072721  0.27235925     0.16710
O426        O  0.91762671  0.81065963  0.22110584    -0.60320
H427        H  0.93604896  0.83678580  0.21376982     0.43710
H428        H  0.91030255  0.77531387  0.41706932     0.43660
C429        C  0.65228888  0.11400753  0.16670664    -0.05400
C430        C  0.62789146  0.08027078  0.18756027    -0.32830
C431        C  0.64823718  0.04952382  0.21723574     0.36420
C432        C  0.69539729  0.04866937  0.22357462    -0.05760
C433        C  0.71841635  0.08479515  0.20554839    -0.32730
C434        C  0.69671106  0.11954004  0.18226385     0.36330
H435        H  0.59215495  0.07859902  0.18186786     0.16700
O436        O  0.62100938  0.02270069  0.24179776    -0.60220
H437        H  0.75354351  0.08608892  0.20630844     0.16710
O438        O  0.71788694  0.15965953  0.17778076    -0.60320
H439        H  0.74837264  0.15316104  0.16658849     0.43710
H440        H  0.60167984  0.00712702  0.21942142     0.43660
C441        C  0.65417084  0.91034812  0.83547606    -0.05400
C442        C  0.63236843  0.94871388  0.81761976    -0.32830
C443        C  0.65450852  0.97858284  0.78939940     0.36420
C444        C  0.70108780  0.97429076  0.78310948    -0.05760
C445        C  0.72270852  0.93746294  0.80237089    -0.32730
C446        C  0.69971753  0.90383582  0.82339417     0.36330
H447        H  0.59746336  0.95500965  0.82469926     0.16700
O448        O  0.63093415  0.01393467  0.77129970    -0.60220
H449        H  0.75820530  0.93514920  0.80433297     0.16710
O450        O  0.72362917  0.86573301  0.83292128    -0.60320
H451        H  0.72566382  0.84961315  0.80359025     0.43710
H452        H  0.62550277  0.00592579  0.73904439     0.43660
C453        C  0.72057830  0.79937681  0.95411052    -0.05400
C454        C  0.70083553  0.78036302  0.91551806    -0.32830
C455        C  0.67606176  0.80562154  0.88430668     0.36420
C456        C  0.66397663  0.85029008  0.89482075    -0.05760
C457        C  0.69040690  0.87112049  0.92874439    -0.32730
C458        C  0.71931346  0.84624386  0.95733001     0.36330
H459        H  0.70073297  0.74558276  0.91022265     0.16700
O460        O  0.66385921  0.78597659  0.84397119    -0.60220
H461        H  0.68807743  0.90664854  0.93402081     0.16710
O462        O  0.74278161  0.86728499  0.99126601    -0.60320
H463        H  0.72016135  0.88025846  0.01190403     0.43710
H464        H  0.69197861  0.78006111  0.82749469     0.43660
C465        C  0.59554170  0.84844357  0.83912132    -0.05400
C466        C  0.58078945  0.86014013  0.79465708    -0.32830
C467        C  0.54991901  0.83431543  0.77045848     0.36420
C468        C  0.53831309  0.79209520  0.78659942    -0.05760
C469        C  0.55514268  0.77864724  0.82904923    -0.32730
C470        C  0.57769682  0.80864645  0.85727429     0.36330
H471        H  0.59035896  0.89048880  0.77851208     0.16700
O472        O  0.52855936  0.85188496  0.73272745    -0.60220
H473        H  0.54662246  0.74644546  0.84260402     0.16710
O474        O  0.58439869  0.79715139  0.90189752    -0.60320
H475        H  0.55474336  0.80013534  0.91624357     0.43710
H476        H  0.55217465  0.86268354  0.71232974     0.43660
C477        C  0.39638420  0.83469437  0.84637803    -0.05400
C478        C  0.39022016  0.83175689  0.79841546    -0.32830
C479        C  0.42218992  0.81068482  0.77102949     0.36420
C480        C  0.45604853  0.78479259  0.79151087    -0.05760
C481        C  0.45411466  0.77731261  0.83815617    -0.32730
C482        C  0.42770178  0.80388889  0.86575854     0.36330
H483        H  0.36233291  0.84770963  0.78119024     0.16700
O484        O  0.42028104  0.81619249  0.72480872    -0.60220
H485        H  0.47569071  0.75284854  0.85430892     0.16710
O486        O  0.43268291  0.79810737  0.91162454    -0.60320
H487        H  0.46406818  0.80559727  0.91916312     0.43710
H488        H  0.43556796  0.84463055  0.71896479     0.43660
C489        C  0.65532461  0.84469800  0.09899356    -0.05400
C490        C  0.64062806  0.84030540  0.05363381    -0.32830
C491        C  0.65807179  0.80757510  0.02530655     0.36420
C492        C  0.69908724  0.78644351  0.03621921    -0.05760
C493        C  0.71194280  0.78780490  0.08255544    -0.32730
C494        C  0.68994150  0.81559067  0.11376531     0.36330
H495        H  0.61225069  0.85868069  0.04043852     0.16700
O496        O  0.63449988  0.79555764  0.98695935    -0.60220
H497        H  0.73709518  0.76687047  0.09681597     0.16710
O498        O  0.70223184  0.81364546  0.15881935    -0.60320
H499        H  0.73148765  0.82855327  0.16091375     0.43710
H500        H  0.62270159  0.82339827  0.97297876     0.43660
C501        C  0.65816664  0.90243766  0.16393278    -0.05400
C502        C  0.64134563  0.91847838  0.20547373    -0.32830
C503        C  0.66729485  0.94355356  0.23527201     0.36420
C504        C  0.70492046  0.96513097  0.21877353    -0.05760
C505        C  0.72053078  0.95359562  0.17557370    -0.32730
C506        C  0.69845861  0.92177852  0.14868013     0.36330
H507        H  0.60778299  0.91103497  0.21583824     0.16700
O508        O  0.65205875  0.95196785  0.27832830    -0.60220
H509        H  0.74868400  0.97099516  0.16166721     0.16710
O510        O  0.71353270  0.91435742  0.10548790    -0.60320
H511        H  0.74213038  0.89767785  0.10926539     0.43710
H512        H  0.64840591  0.92243781  0.29281981     0.43660
C513        C  0.71596417  0.05421049  0.79288162    -0.05400
C514        C  0.69547831  0.09117788  0.77187491    -0.32830
C515        C  0.67457889  0.12411113  0.79846773     0.36420
C516        C  0.66257258  0.11444528  0.84427945    -0.05760
C517        C  0.68807129  0.07975904  0.86506483    -0.32730
C518        C  0.71606282  0.05189731  0.84046521     0.36330
H519        H  0.69716008  0.09526907  0.73537723     0.16700
O520        O  0.66598121  0.16493666  0.77918536    -0.60220
H521        H  0.68664502  0.07203670  0.90045889     0.16710
O522        O  0.73930801  0.01875917  0.86299201    -0.60320
H523        H  0.77069759  0.02872568  0.86384994     0.43710
H524        H  0.69497038  0.18041466  0.77976793     0.43660
C525        C  0.39305093  0.16245454  0.83578523    -0.05400
C526        C  0.43667395  0.14650871  0.82831976    -0.32830
C527        C  0.45943386  0.15878489  0.78988650     0.36420
C528        C  0.45068942  0.20049629  0.76973160    -0.05760
C529        C  0.40608385  0.21595157  0.77432871    -0.32730
C530        C  0.37642376  0.19478461  0.80442202     0.36330
H531        H  0.44954585  0.11708278  0.84521635     0.16700
O532        O  0.48125923  0.12600942  0.76590840    -0.60220
H533        H  0.39223944  0.24188799  0.75370834     0.16710
O534        O  0.33165781  0.20542411  0.80295230    -0.60320
H535        H  0.32928072  0.23822658  0.80611934     0.43710
H536        H  0.49864716  0.10750851  0.78798296     0.43660
C537        C  0.59336406  0.16852712  0.84147516    -0.05400
C538        C  0.58045691  0.15039927  0.79930128    -0.32830
C539        C  0.55546326  0.17496849  0.76753635     0.36420
C540        C  0.53297078  0.21417962  0.78096943    -0.05760
C541        C  0.53990111  0.22963436  0.82550522    -0.32730
C542        C  0.56919653  0.20706184  0.85581858     0.36330
H543        H  0.59108128  0.11720620  0.78967730     0.16700
O544        O  0.54800127  0.15743614  0.72486750    -0.60220
H545        H  0.52040107  0.25771186  0.83772230     0.16710
O546        O  0.57284559  0.22220926  0.89968248    -0.60320
H547        H  0.54412226  0.21509887  0.91417881     0.43710
H548        H  0.57756859  0.14816295  0.71303604     0.43660
C549        C  0.39722626  0.84217947  0.15730979    -0.05400
C550        C  0.42407410  0.86229758  0.19101413    -0.32830
C551        C  0.45264245  0.83718351  0.21910839     0.36420
C552        C  0.45786011  0.79108091  0.21226224    -0.05760
C553        C  0.43511323  0.77131896  0.17594776    -0.32730
C554        C  0.40768135  0.79693831  0.14661426     0.36330
H555        H  0.42160692  0.89788032  0.19665693     0.16700
O556        O  0.47777091  0.85859245  0.25143165    -0.60220
H557        H  0.44296941  0.73711852  0.16704440     0.16710
O558        O  0.39700898  0.77952004  0.10473386    -0.60320
H559        H  0.38411212  0.74978718  0.11025663     0.43710
H560        H  0.46222255  0.85352887  0.28047698     0.43660
C561        C  0.60044417  0.83720743  0.15971641    -0.05400
C562        C  0.60702529  0.82824450  0.20676419    -0.32830
C563        C  0.57483608  0.80594293  0.23201427     0.36420
C564        C  0.54009556  0.78411067  0.20915049    -0.05760
C565        C  0.54080770  0.78258092  0.16172820    -0.32730
C566        C  0.56920160  0.80929392  0.13705373     0.36330
H567        H  0.63576331  0.84008172  0.22526809     0.16700
O568        O  0.57574375  0.80892080  0.27854164    -0.60220
H569        H  0.51668136  0.76301783  0.14312753     0.16710
O570        O  0.56476017  0.80807325  0.09072372    -0.60320
H571        H  0.57687094  0.77858389  0.08142982     0.43710
H572        H  0.60373059  0.79361752  0.28853994     0.43660
C573        C  0.20705860  0.95626076  0.72737191    -0.05400
C574        C  0.16035769  0.95893650  0.72854896    -0.32830
C575        C  0.13380635  0.93145696  0.70142459     0.36420
C576        C  0.15383113  0.90053721  0.67094202    -0.05760
C577        C  0.20084761  0.89408656  0.67545236    -0.32730
C578        C  0.22714857  0.92144896  0.70307165     0.36330
H579        H  0.14429388  0.98492400  0.74829008     0.16700
O580        O  0.08834677  0.93450911  0.70598340    -0.60220
H581        H  0.21838974  0.86830947  0.65704340     0.16710
O582        O  0.27269051  0.91716411  0.70158319    -0.60320
H583        H  0.28008507  0.89057489  0.72035814     0.43710
H584        H  0.08190551  0.92314799  0.73681103     0.43660
C585        C  0.16160392  0.09866906  0.65959040    -0.05400
C586        C  0.18040314  0.06065938  0.63871884    -0.32830
C587        C  0.20883842  0.03144841  0.66271221     0.36420
C588        C  0.21574801  0.03676831  0.70995692    -0.05760
C589        C  0.19861917  0.07527813  0.73018817    -0.32730
C590        C  0.17506304  0.10738291  0.70523669     0.36330
H591        H  0.17422666  0.05441219  0.60294850     0.16700
O592        O  0.22920247  0.99717504  0.63982008    -0.60220
H593        H  0.20146780  0.08067563  0.76582574     0.16710
O594        O  0.16530547  0.14673640  0.72670159    -0.60320
H595        H  0.19221901  0.16514618  0.72306752     0.43710
H596        H  0.20456183  0.97854487  0.62822503     0.43660
C597        C  0.28223664  0.04298472  0.78785558    -0.05400
C598        C  0.32582619  0.05246778  0.77599729    -0.32830
C599        C  0.35254906  0.07805861  0.80459152     0.36420
C600        C  0.33312437  0.10589555  0.83857657    -0.05760
C601        C  0.28616681  0.10295748  0.84284779    -0.32730
C602        C  0.26277221  0.06756484  0.82320277     0.36330
H603        H  0.34131438  0.03535776  0.74794582     0.16700
O604        O  0.39767463  0.07209519  0.80097988    -0.60220
H605        H  0.26689676  0.12542205  0.86333341     0.16710
O606        O  0.22225414  0.05534703  0.84046345    -0.60320
H607        H  0.20406966  0.08297541  0.84385730     0.43710
H608        H  0.40508372  0.08062136  0.76940575     0.43660
C609        C  0.33814364  0.90002934  0.84756878    -0.05400
C610        C  0.29342726  0.91105208  0.85919635    -0.32830
C611        C  0.26714606  0.94077427  0.83289736     0.36420
C612        C  0.28475515  0.96025417  0.79385031    -0.05760
C613        C  0.32926680  0.95047505  0.78298077    -0.32730
C614        C  0.35675472  0.92475107  0.81164665     0.36330
H615        H  0.27898691  0.89864383  0.89007497     0.16700
O616        O  0.22469774  0.95153610  0.84633859    -0.60220
H617        H  0.34397710  0.96487549  0.75324047     0.16710
O618        O  0.40221222  0.92491940  0.80538094    -0.60320
H619        H  0.40732744  0.91798528  0.77287884     0.43710
H620        H  0.22846564  0.97086596  0.87338330     0.43660
C621        C  0.09862906  0.67308410  0.16391630    -0.05400
C622        C  0.09883059  0.67110908  0.21176764    -0.32830
C623        C  0.06343058  0.68966984  0.23572126     0.36420
C624        C  0.03802315  0.72401848  0.21556402    -0.05760
C625        C  0.04738195  0.73646569  0.17088647    -0.32730
C626        C  0.07362400  0.70866395  0.14379378     0.36330
H627        H  0.12258109  0.65133180  0.23087565     0.16700
O628        O  0.04902437  0.66890756  0.27443661    -0.60220
H629        H  0.03034295  0.76455333  0.15524396     0.16710
O630        O  0.07370991  0.71611817  0.09780966    -0.60320
H631        H  0.09008706  0.74425126  0.09363298     0.43710
H632        H  0.07580421  0.65837046  0.29171355     0.43660
C633        C  0.83258659  0.66454445  0.09998121    -0.05400
C634        C  0.80831010  0.64369966  0.06490006    -0.32830
C635        C  0.77700258  0.66649302  0.03828206     0.36420
C636        C  0.77634630  0.71320349  0.03806852    -0.05760
C637        C  0.80364516  0.73502829  0.06985516    -0.32730
C638        C  0.82461645  0.71102339  0.10538470     0.36330
H639        H  0.81312053  0.60940256  0.05683650     0.16700
O640        O  0.74831246  0.64268391  0.01130618    -0.60220
H641        H  0.80558180  0.77102290  0.06929951     0.16710
O642        O  0.83449367  0.73245246  0.14551470    -0.60320
H643        H  0.84850942  0.76109938  0.13757440     0.43710
H644        H  0.76715595  0.62314701  0.99197628     0.43660
C645        C  0.89659189  0.66329257  0.16066737    -0.05400
C646        C  0.90928400  0.65095955  0.20556146    -0.32830
C647        C  0.93788166  0.67738975  0.23218710     0.36420
C648        C  0.95550371  0.71651127  0.21406366    -0.05760
C649        C  0.94520074  0.72738902  0.16887038    -0.32730
C650        C  0.91984022  0.69938023  0.14132499     0.36330
H651        H  0.89873424  0.61978369  0.21990532     0.16700
O652        O  0.94933280  0.66417733  0.27547083    -0.60220
H653        H  0.95902391  0.75671787  0.15362357     0.16710
O654        O  0.91880961  0.70679603  0.09514291    -0.60320
H655        H  0.91154272  0.73879836  0.09042236     0.43710
H656        H  0.96706783  0.63630087  0.27193589     0.43660
C657        C  0.83958673  0.39672730  0.83360981    -0.05400
C658        C  0.79216983  0.39693615  0.83604627    -0.32830
C659        C  0.76577304  0.42835428  0.81259362     0.36420
C660        C  0.78576127  0.45859995  0.78324747    -0.05760
C661        C  0.83188390  0.45541671  0.77630953    -0.32730
C662        C  0.85870361  0.42512031  0.80074650     0.36330
H663        H  0.77454302  0.37401871  0.85730327     0.16700
O664        O  0.72073582  0.43045900  0.82020054    -0.60220
H665        H  0.84771337  0.47858393  0.75355782     0.16710
O666        O  0.90382608  0.42413033  0.79289248    -0.60320
H667        H  0.90737602  0.41615273  0.76043312     0.43710
H668        H  0.71728419  0.44885460  0.84792964     0.43660
C669        C  0.09585315  0.65903571  0.83846982    -0.05400
C670        C  0.09242895  0.65191473  0.79091138    -0.32830
C671        C  0.06364441  0.67791226  0.76324799     0.36420
C672        C  0.03617810  0.71063666  0.78286952    -0.05760
C673        C  0.03771070  0.71669527  0.82979786    -0.32730
C674        C  0.06558497  0.69083066  0.85756774     0.36330
H675        H  0.11072369  0.62531212  0.77462743     0.16700
O676        O  0.06115387  0.66988368  0.71739493    -0.60220
H677        H  0.01487448  0.74018873  0.84556962     0.16710
O678        O  0.06317574  0.69723111  0.90372174    -0.60320
H679        H  0.06852685  0.72929410  0.90934433     0.43710
H680        H  0.04586101  0.64099712  0.71415244     0.43660
C681        C  0.83554685  0.66844071  0.89469889    -0.05400
C682        C  0.78838912  0.66614755  0.89478442    -0.32830
C683        C  0.76254825  0.68915600  0.92647051     0.36420
C684        C  0.78232952  0.72114411  0.95498902    -0.05760
C685        C  0.82836451  0.72777248  0.95186091    -0.32730
C686        C  0.85515836  0.70094456  0.92377943     0.36330
H687        H  0.77038147  0.64441156  0.87222482     0.16700
O688        O  0.71942472  0.67566559  0.93379253    -0.60220
H689        H  0.84427937  0.75154452  0.97427202     0.16710
O690        O  0.90030805  0.70839818  0.92333293    -0.60320
H691        H  0.91096366  0.70575359  0.95530115     0.43710
H692        H  0.70517433  0.67068735  0.90361846     0.43660
C693        C  0.89321007  0.66252414  0.82994333    -0.05400
C694        C  0.89107691  0.70959070  0.82603932    -0.32830
C695        C  0.92292312  0.73289221  0.80149820     0.36420
C696        C  0.95425767  0.70920020  0.77568908    -0.05760
C697        C  0.95145481  0.66300473  0.77280377    -0.32730
C698        C  0.92283821  0.63951028  0.80038721     0.36330
H699        H  0.86623486  0.72927010  0.84341269     0.16700
O700        O  0.92542286  0.77823311  0.80608458    -0.60220
H701        H  0.97421265  0.64449778  0.75138292     0.16710
O702        O  0.92251301  0.59399998  0.79620547    -0.60320
H703        H  0.95336002  0.58348760  0.80337098     0.43710
H704        H  0.89834086  0.79046240  0.79058971     0.43660
C705        C  0.83326430  0.60390685  0.83777542    -0.05400
C706        C  0.82609642  0.60692457  0.79014289    -0.32830
C707        C  0.80282664  0.57418226  0.76628022     0.36420
C708        C  0.78149983  0.54037212  0.79029980    -0.05760
C709        C  0.78390041  0.54022582  0.83791026    -0.32730
C710        C  0.81048273  0.57022052  0.86147475     0.36330
H711        H  0.84008390  0.63347819  0.77035393     0.16700
O712        O  0.80448763  0.57343910  0.71971032    -0.60220
H713        H  0.76709550  0.51477939  0.85703054     0.16710
O714        O  0.81277571  0.56745244  0.90804444    -0.60320
H715        H  0.83023430  0.53989331  0.91483524     0.43710
H716        H  0.78944385  0.60133872  0.70933978     0.43660
C717        C  0.22500593  0.54290705  0.80094388    -0.05400
C718        C  0.21684664  0.58639344  0.78428641    -0.32830
C719        C  0.18929940  0.61664622  0.80794204     0.36420
C720        C  0.16260634  0.60166897  0.84423792    -0.05760
C721        C  0.17395828  0.55959411  0.86237439    -0.32730
C722        C  0.20752856  0.53307433  0.84399380     0.36330
H723        H  0.23069922  0.59799676  0.75322742     0.16700
O724        O  0.18714827  0.66013622  0.79380338    -0.60220
H725        H  0.15933658  0.54769479  0.89338579     0.16710
O726        O  0.22290586  0.49690874  0.86831840    -0.60320
H727        H  0.19614955  0.47944395  0.87560103     0.43710
H728        H  0.21190507  0.67504208  0.81013977     0.43660
C729        C  0.21797960  0.46184048  0.78022095    -0.05400
C730        C  0.17155381  0.46446958  0.77461683    -0.32830
C731        C  0.14323216  0.43675048  0.79890391     0.36420
C732        C  0.16079041  0.40430950  0.82978248    -0.05760
C733        C  0.20763187  0.39607033  0.82721822    -0.33010
C734        C  0.23609509  0.42514531  0.80408060     0.36330
H735        H  0.15685742  0.49159039  0.75496179     0.16700
O736        O  0.09835625  0.44367992  0.79336040    -0.60220
H737        H  0.22329063  0.36844788  0.84499775     0.16710
O738        O  0.28137476  0.42052531  0.80980368    -0.60320
H739        H  0.29025978  0.39608815  0.78901328     0.43710
H740        H  0.09101992  0.43182455  0.76274378     0.43660
C741        C  0.76833250  0.55064431  0.20285223    -0.05400
C742        C  0.77367096  0.54903612  0.15572947    -0.32830
C743        C  0.81078381  0.56782656  0.13620337     0.36420
C744        C  0.83176820  0.60466938  0.15741640    -0.05760
C745        C  0.81573136  0.61618565  0.20085942    -0.32730
C746        C  0.78997921  0.58600824  0.22569282     0.36330
H747        H  0.75440744  0.52696399  0.13482191     0.16700
O748        O  0.82679323  0.54801513  0.09756970    -0.60220
H749        H  0.82608862  0.64640036  0.21756955     0.16710
O750        O  0.79042155  0.58955483  0.27188012    -0.60320
H751        H  0.77682270  0.61910237  0.27859051     0.43710
H752        H  0.84080162  0.51951065  0.10769590     0.43660
C753        C  0.83594390  0.40905064  0.15985542    -0.05400
C754        C  0.84343446  0.42187182  0.20570410    -0.32830
C755        C  0.81717458  0.45466656  0.22643984     0.36420
C756        C  0.77578214  0.46720556  0.20737059    -0.05760
C757        C  0.76489768  0.45027276  0.16420959    -0.32730
C758        C  0.79742119  0.42786554  0.13821389     0.36330
H759        H  0.87088502  0.40951276  0.22585957     0.16700
O760        O  0.83318485  0.47533709  0.26476481    -0.60220
H761        H  0.73344546  0.45972723  0.14819708     0.16710
O762        O  0.79119831  0.42398878  0.09199332    -0.60320
H763        H  0.76092408  0.41179276  0.08714103     0.43710
H764        H  0.85067416  0.50076294  0.25351973     0.43660
C765        C  0.04279172  0.20709000  0.71959516    -0.05400
C766        C  0.07347998  0.23006619  0.69343129    -0.32830
C767        C  0.10603178  0.20670572  0.66907507     0.36420
C768        C  0.10272275  0.15965992  0.66342118    -0.05760
C769        C  0.07395869  0.13730358  0.69286777    -0.32730
C770        C  0.04580470  0.16037322  0.72191861     0.36330
H771        H  0.07297028  0.26610509  0.69281147     0.16700
O772        O  0.14149253  0.23018923  0.65328943    -0.60220
H773        H  0.07424007  0.10134075  0.69457923     0.16710
O774        O  0.02161321  0.13702519  0.75301170    -0.60320
H775        H  0.00359962  0.11549942  0.73527321     0.43710
H776        H  0.16349715  0.23046174  0.67871063     0.43660
C777        C  0.96098896  0.21418064  0.71720402    -0.05400
C778        C  0.93706189  0.18066682  0.73806395    -0.32830
C779        C  0.90760679  0.15462997  0.71268157     0.36420
C780        C  0.89578576  0.16709889  0.66726188    -0.05760
C781        C  0.91969676  0.20206803  0.64735258    -0.32730
C782        C  0.95193877  0.22519175  0.67171136     0.36330
H783        H  0.94568551  0.17080681  0.77252814     0.16700
O784        O  0.89720089  0.11363428  0.72991567    -0.60220
H785        H  0.91431306  0.21056402  0.61190839     0.16710
O786        O  0.97561276  0.25776801  0.65044314    -0.60320
H787        H  0.99707774  0.24172340  0.63071387     0.43710
H788        H  0.88415789  0.11912028  0.76026397     0.43660
C789        C  0.96080895  0.27577129  0.79387327    -0.05400
C790        C  0.92541949  0.29600908  0.76961649    -0.32830
C791        C  0.89393560  0.32323366  0.79159463     0.36420
C792        C  0.89965636  0.33379527  0.83858331    -0.05760
C793        C  0.93220074  0.30878397  0.86310776    -0.32730
C794        C  0.96204792  0.28000518  0.84139531     0.36330
H795        H  0.92327623  0.29290867  0.73305645     0.16700
O796        O  0.85619111  0.33603267  0.76771942    -0.60220
H797        H  0.93486011  0.31149737  0.89963264     0.16710
O798        O  0.99449386  0.25822126  0.86656164    -0.60320
H799        H  0.01612308  0.28136784  0.87566324     0.43710
H800        H  0.86637515  0.35095614  0.73970347     0.43660
C801        C  0.04165638  0.29230719  0.78048960    -0.05400
C802        C  0.02995382  0.33688411  0.78805303    -0.32830
C803        C  0.05435785  0.36271277  0.81804559     0.36420
C804        C  0.09881064  0.34967856  0.83057617    -0.05760
C805        C  0.11560163  0.31077955  0.80904507    -0.32730
C806        C  0.08601718  0.27909618  0.79086382     0.36330
H807        H  0.99750084  0.34965740  0.77740626     0.16700
O808        O  0.03234593  0.39855234  0.83647546    -0.60220
H809        H  0.15044499  0.30144584  0.81314513     0.16710
O810        O  0.09922153  0.23520895  0.78938693    -0.60320
H811        H  0.12705991  0.23418276  0.77150672     0.43710
H812        H  0.02095173  0.41717785  0.81087059     0.43660
C813        C  0.71851636  0.22204431  0.04623560    -0.05400
C814        C  0.73131834  0.18059945  0.06395187    -0.32830
C815        C  0.69983661  0.15389196  0.08552358     0.36420
C816        C  0.66048505  0.17355673  0.10382468    -0.05760
C817        C  0.65234882  0.21900099  0.09267457    -0.32730
C818        C  0.67840563  0.24127891  0.06097171     0.36330
H819        H  0.76344049  0.16635186  0.05529182     0.16700
O820        O  0.70740591  0.10865563  0.08789309    -0.60220
H821        H  0.62461358  0.23780315  0.10542095     0.16710
O822        O  0.66304251  0.28059698  0.04220007    -0.60320
H823        H  0.65984996  0.30182943  0.06778815     0.43710
H824        H  0.73828180  0.10409279  0.09972381     0.43660
C825        C  0.71913883  0.21627617  0.96134816    -0.05400
C826        C  0.69642792  0.23983311  0.92660331    -0.32830
C827        C  0.66928546  0.21679263  0.89483603     0.36420
C828        C  0.65618265  0.17205626  0.90406088    -0.05760
C829        C  0.67863354  0.15075145  0.94033362    -0.32730
C830        C  0.71467594  0.16988794  0.96169295     0.36330
H831        H  0.70034816  0.27544058  0.92335574     0.16700
O832        O  0.65580180  0.23852122  0.85598898    -0.60220
H833        H  0.67109862  0.11752383  0.95082601     0.16710
O834        O  0.74555360  0.14237179  0.98231516    -0.60320
H835        H  0.77093409  0.14075142  0.96106938     0.43710
H836        H  0.68278098  0.24004772  0.83694482     0.43660
C837        C  0.84102332  0.34179775  0.10500242    -0.05400
C838        C  0.86380942  0.31424401  0.07373313    -0.32830
C839        C  0.84084785  0.28639996  0.04392128     0.36420
C840        C  0.79399015  0.28493319  0.04493293    -0.05760
C841        C  0.77218547  0.30487036  0.08161327    -0.32730
C842        C  0.79595569  0.32993287  0.11350152     0.36330
H843        H  0.89981098  0.31349919  0.07255645     0.16700
O844        O  0.86425635  0.26181838  0.01264201    -0.60220
H845        H  0.73663869  0.30268889  0.08519596     0.16710
O846        O  0.77482246  0.34149390  0.15291477    -0.60320
H847        H  0.78498217  0.31907748  0.17565320     0.43710
H848        H  0.87744501  0.28375636  0.99167955     0.43660
C849        C  0.83952500  0.33995045  0.89827211    -0.05400
C850        C  0.81793041  0.36319181  0.93350127    -0.32830
C851        C  0.78962049  0.34176179  0.96344205     0.36420
C852        C  0.78430870  0.29516751  0.96134524    -0.05760
C853        C  0.80292207  0.27198728  0.92491336    -0.32730
C854        C  0.82839934  0.29402847  0.89247835     0.36330
H855        H  0.82253544  0.39868650  0.93741630     0.16700
O856        O  0.76961142  0.36639900  0.99692885    -0.60220
H857        H  0.79920960  0.23628382  0.92231104     0.16710
O858        O  0.84167863  0.26977348  0.85552238    -0.60320
H859        H  0.81701135  0.27321094  0.83295844     0.43710
H860        H  0.73816573  0.37041563  0.98670618     0.43660
C861        C  0.18725024  0.73017027  0.03881858    -0.05400
C862        C  0.19456900  0.73585677  0.08594748    -0.32830
C863        C  0.17820141  0.70475562  0.11773493     0.36420
C864        C  0.15424140  0.66679377  0.10242974    -0.05760
C865        C  0.15067468  0.66119856  0.05552856    -0.32730
C866        C  0.15553221  0.69779210  0.02770502     0.36330
H867        H  0.20863952  0.76577980  0.09923871     0.16700
O868        O  0.18542591  0.71179983  0.16330319    -0.60220
H869        H  0.13745665  0.63146580  0.04036383     0.16710
O870        O  0.12447535  0.70587771  0.99394422    -0.60320
H871        H  0.11814092  0.67709763  0.97936418     0.43710
H872        H  0.16761448  0.73878381  0.17097708     0.43660
C873        C  0.15995743  0.66445456  0.89806519    -0.05400
C874        C  0.15768727  0.71112879  0.89214720    -0.32830
C875        C  0.17444470  0.73936606  0.92569499     0.36420
C876        C  0.20758859  0.72342612  0.95603133    -0.05760
C877        C  0.21927494  0.67810956  0.95449116    -0.32730
C878        C  0.19258328  0.64838358  0.92993746     0.36330
H879        H  0.13844557  0.72654032  0.86517391     0.16700
O880        O  0.15263955  0.77918943  0.93444414    -0.60220
H881        H  0.24293497  0.66476077  0.97929635     0.16710
O882        O  0.19707226  0.60412506  0.94005389    -0.60320
H883        H  0.17672763  0.59908793  0.96580987     0.43710
H884        H  0.14334350  0.79245552  0.90486178     0.43660
C885        C  0.26548277  0.80224752  0.04321293    -0.05400
C886        C  0.28499885  0.78118977  0.08149751    -0.32830
C887        C  0.30955034  0.80590802  0.11332006     0.36420
C888        C  0.33036975  0.84562768  0.09913741    -0.05760
C889        C  0.31263948  0.86515932  0.05886952    -0.32730
C890        C  0.27603704  0.84713758  0.03590998     0.36330
H891        H  0.28091481  0.74591836  0.08721290     0.16700
O892        O  0.31601584  0.78903113  0.15620612    -0.60220
H893        H  0.32487417  0.89609320  0.04579187     0.16710
O894        O  0.25533449  0.87086023  0.00140547    -0.60320
H895        H  0.27890441  0.87888001  0.97963374     0.43710
H896        H  0.28972890  0.79944530  0.17355928     0.43660
C897        C  0.34075970  0.83637806  0.90758961    -0.05400
C898        C  0.30216695  0.81702987  0.88938092    -0.32830
C899        C  0.27040498  0.79939812  0.91852336     0.36420
C900        C  0.28346414  0.78416317  0.96245038    -0.05760
C901        C  0.32873521  0.78981385  0.97431335    -0.32730
C902        C  0.35378540  0.82181212  0.95195688     0.36330
H903        H  0.29232481  0.82395219  0.85452924     0.16700
O904        O  0.22692021  0.80797729  0.90744545    -0.60220
H905        H  0.34142295  0.77756185  0.00667451     0.16710
O906        O  0.39013738  0.83818197  0.97471145    -0.60320
H907        H  0.37861369  0.86358087  0.99275537     0.43710
H908        H  0.22222692  0.79608847  0.87627680     0.43660
C909        C  0.21084571  0.46380025  0.21629681    -0.05400
C910        C  0.21913322  0.45589285  0.17017489    -0.32830
C911        C  0.19102462  0.42918811  0.14376019     0.36420
C912        C  0.15617245  0.40486258  0.16402502    -0.05760
C913        C  0.14644080  0.41530802  0.20967199    -0.32730
C914        C  0.17374687  0.44323326  0.23588182     0.36330
H915        H  0.24550903  0.47351289  0.15341827     0.16700
O916        O  0.19810527  0.42689689  0.09783457    -0.60220
H917        H  0.11606988  0.40415248  0.22505972     0.16710
O918        O  0.16055022  0.45467178  0.27886220    -0.60320
H919        H  0.15817840  0.42626136  0.29580229     0.43710
H920        H  0.18229547  0.45326779  0.08481888     0.43660
C921        C  0.15342576  0.60530055  0.16323384    -0.05400
C922        C  0.19913714  0.59817060  0.15385431    -0.32830
C923        C  0.22530349  0.56758445  0.17883567     0.36420
C924        C  0.20715481  0.54593925  0.21661349    -0.05760
C925        C  0.16221270  0.55286806  0.22641708    -0.32730
C926        C  0.13469617  0.57864891  0.19809967     0.36330
H927        H  0.21470090  0.61404671  0.12530135     0.16700
O928        O  0.26671298  0.55537477  0.16313246    -0.60220
H929        H  0.14718527  0.53494835  0.25406335     0.16710
O930        O  0.08971192  0.57983915  0.20692126    -0.60320
H931        H  0.07944949  0.54862763  0.20491659     0.43710
H932        H  0.28294176  0.58336571  0.15751098     0.43660
C933        C  0.21199485  0.20724152  0.53600164    -0.05400
C934        C  0.16669359  0.21777972  0.54122454    -0.32830
C935        C  0.13979334  0.19245222  0.56965561     0.36420
C936        C  0.15921323  0.15845381  0.59770155    -0.05760
C937        C  0.20557185  0.15029275  0.59333154    -0.32730
C938        C  0.23016352  0.17074004  0.55978567     0.36330
H939        H  0.15129827  0.24370218  0.52051424     0.16700
O940        O  0.09474065  0.20180178  0.57051612    -0.60220
H941        H  0.22372514  0.12616709  0.61357834     0.16710
O942        O  0.27185800  0.15404029  0.54950845    -0.60320
H943        H  0.26836484  0.12170876  0.54385426     0.43710
H944        H  0.09148860  0.23391066  0.57782859     0.43660
C945        C  0.21653923  0.20240494  0.45408082    -0.05400
C946        C  0.21886445  0.15571029  0.45063305    -0.32830
C947        C  0.18693224  0.13200270  0.42571017     0.36420
C948        C  0.15450604  0.15481014  0.39892287    -0.05760
C949        C  0.15679920  0.20202584  0.39802542    -0.32730
C950        C  0.18387174  0.22527559  0.42839747     0.36330
H951        H  0.24320333  0.13708356  0.47044130     0.16700
O952        O  0.18748825  0.08639260  0.42809662    -0.60220
H953        H  0.13699012  0.22229330  0.37513131     0.16710
O954        O  0.17721550  0.27031008  0.43420882    -0.60320
H955        H  0.18275639  0.28427993  0.40431147     0.43710
H956        H  0.21298497  0.07654788  0.40923502     0.43660
C957        C  0.53179383  0.22749916  0.21134703    -0.05400
C958        C  0.56681549  0.20603537  0.23419645    -0.32830
C959        C  0.59968390  0.18288687  0.21040578     0.36420
C960        C  0.59604371  0.17714926  0.16198046    -0.05760
C961        C  0.56168558  0.20194412  0.13980443    -0.32730
C962        C  0.53092530  0.22753654  0.16368226     0.36330
H963        H  0.56795552  0.20559776  0.27099751     0.16700
O964        O  0.63448610  0.16600585  0.23591797    -0.60220
H965        H  0.55882418  0.20266256  0.10317854     0.16710
O966        O  0.49810580  0.25025224  0.14001907    -0.60320
H967        H  0.50825956  0.28149136  0.13890606     0.43710
H968        H  0.65498975  0.19126364  0.24055476     0.43660
C969        C  0.45116796  0.21510249  0.22154870    -0.05400
C970        C  0.45650552  0.16858794  0.21907962    -0.32830
C971        C  0.42989036  0.14325536  0.18997635     0.36420
C972        C  0.39254391  0.16310689  0.16751143    -0.05760
C973        C  0.38374506  0.20865920  0.17630213    -0.32730
C974        C  0.41451674  0.23507194  0.19901515     0.36330
H975        H  0.48475735  0.15242131  0.23588131     0.16700
O976        O  0.43967506  0.09872610  0.18502890    -0.60220
H977        H  0.35480265  0.22576659  0.16223493     0.16710
O978        O  0.41209464  0.28008891  0.19221613    -0.60320
H979        H  0.38193386  0.28970149  0.20215480     0.43710
H980        H  0.46836026  0.09725643  0.16860797     0.43660
C981        C  0.03791451  0.28525109  0.21225516    -0.05400
C982        C  0.03016028  0.29412751  0.16627941    -0.32830
C983        C  0.05352125  0.32690597  0.14422757     0.36420
C984        C  0.09463964  0.34285939  0.16261595    -0.05760
C985        C  0.10864151  0.32340159  0.20450285    -0.32730
C986        C  0.07866219  0.29946691  0.23151129     0.36330
H987        H  0.00036981  0.28177169  0.14954001     0.16700
O988        O  0.03421946  0.34282638  0.10504756    -0.60220
H989        H  0.14149109  0.32987231  0.21838095     0.16710
O990        O  0.08819720  0.29366802  0.27679884    -0.60320
H991        H  0.11426637  0.27296441  0.27810306     0.43710
H992        H  0.01008998  0.36347262  0.11493181     0.43660
C993        C  0.95503855  0.21582318  0.28487077    -0.05400
C994        C  0.95448579  0.16919896  0.28383563    -0.32830
C995        C  0.92550583  0.14508432  0.31061073     0.36420
C996        C  0.89309500  0.16741250  0.33747796    -0.05760
C997        C  0.89048531  0.21457857  0.33355751    -0.32730
C998        C  0.92245038  0.23859321  0.30995209     0.36330
H999        H  0.97894800  0.15094792  0.26414590     0.16700
O1000       O  0.92891293  0.09949904  0.30956230    -0.60220
H1001       H  0.86456204  0.23392357  0.34970313     0.16710
O1002       O  0.92248095  0.28408625  0.31343810    -0.60320
H1003       H  0.94224268  0.29057879  0.33981079     0.43710
H1004       H  0.92169755  0.09039904  0.27795737     0.43660
C1005       C  0.95625568  0.29677561  0.22421442    -0.05400
C1006       C  0.95972876  0.34309813  0.22323888    -0.32830
C1007       C  0.93393927  0.36868950  0.19318758     0.36420
C1008       C  0.89835147  0.34917804  0.16803416    -0.05760
C1009       C  0.89118860  0.30298615  0.17552650    -0.32730
C1010       C  0.92110561  0.27665117  0.20060403     0.36330
H1011       H  0.98682729  0.35896335  0.24152069     0.16700
O1012       O  0.94318901  0.41312738  0.19042908    -0.60220
H1013       H  0.86380813  0.28539739  0.16007290     0.16710
O1014       O  0.91864674  0.23119218  0.19719065    -0.60320
H1015       H  0.89065806  0.22302729  0.21257281     0.43710
H1016       H  0.97326434  0.41479297  0.17683679     0.43660
C1017       C  0.09150700  0.16014096  0.33973185    -0.05400
C1018       C  0.09087482  0.15890382  0.29149521    -0.32830
C1019       C  0.06331472  0.18760123  0.26626438     0.36420
C1020       C  0.03641862  0.21856404  0.28889039    -0.05760
C1021       C  0.03836227  0.22189087  0.33602998    -0.32730
C1022       C  0.06298352  0.19156161  0.36149320     0.36330
H1023       H  0.10989908  0.13468979  0.27248127     0.16700
O1024       O  0.05962732  0.18230351  0.22008632    -0.60220
H1025       H  0.01688041  0.24546914  0.35351633     0.16710
O1026       O  0.06099034  0.19481472  0.40795475    -0.60320
H1027       H  0.03012533  0.18654918  0.41597416     0.43710
H1028       H  0.08586780  0.19750005  0.20744058     0.43660
C1029       C  0.33188222  0.90122398  0.16107745    -0.05400
C1030       C  0.30024012  0.92925422  0.13891644    -0.32830
C1031       C  0.26898199  0.95430675  0.16224736     0.36420
C1032       C  0.27483866  0.96120577  0.20879213    -0.05760
C1033       C  0.30394648  0.93266755  0.23284479    -0.32730
C1034       C  0.32883179  0.89975670  0.20967230     0.36330
H1035       H  0.29801666  0.93200783  0.10278414     0.16700
O1036       O  0.23170585  0.97078540  0.13980319    -0.60220
H1037       H  0.30668595  0.93524207  0.26947749     0.16710
O1038       O  0.34791523  0.86630939  0.23518395    -0.60320
H1039       H  0.32451865  0.84351875  0.23791341     0.43710
H1040       H  0.24145356  0.98250190  0.11004331     0.43660
C1041       C  0.14922576  0.09743523  0.33717282    -0.05400
C1042       C  0.18621569  0.11518447  0.31441890    -0.32830
C1043       C  0.21239951  0.08846231  0.28575544     0.36420
C1044       C  0.19750534  0.04535153  0.27337933    -0.05760
C1045       C  0.15381239  0.03520877  0.28544642    -0.32730
C1046       C  0.13722177  0.05353014  0.32476133     0.36330
H1047       H  0.19647349  0.14903523  0.32088839     0.16700
O1048       O  0.25125217  0.10579739  0.27077572    -0.60220
H1049       H  0.13910006  0.00430508  0.27438937     0.16710
O1050       O  0.11996887  0.02359053  0.35458896    -0.60320
H1051       H  0.13934296  0.02465292  0.38205555     0.43710
H1052       H  0.24243645  0.12609403  0.24550116     0.43660
C1053       C  0.27778697  0.04332420  0.20891659    -0.05400
C1054       C  0.26552529  0.05807596  0.16546645    -0.32830
C1055       C  0.29485684  0.08324624  0.13966254     0.36420
C1056       C  0.33175901  0.10432670  0.16109398    -0.05760
C1057       C  0.34050313  0.09296167  0.20722384    -0.32730
C1058       C  0.31680449  0.05968797  0.22900097     0.36330
H1059       H  0.23451435  0.04776852  0.15016154     0.16700
O1060       O  0.28743652  0.08687095  0.09353062    -0.60220
H1061       H  0.36674821  0.10757890  0.22706176     0.16710
O1062       O  0.33142615  0.04377521  0.27045260    -0.60320
H1063       H  0.32667035  0.06838659  0.29237847     0.43710
H1064       H  0.25575230  0.09609039  0.08911791     0.43660
C1065       C  0.21279717  0.96332323  0.28685810    -0.05400
C1066       C  0.21221144  0.96524939  0.33465436    -0.32830
C1067       C  0.18254706  0.93939512  0.36001619     0.36420
C1068       C  0.15436721  0.90845089  0.33786894    -0.05760
C1069       C  0.15968229  0.90296113  0.29035374    -0.32730
C1070       C  0.18725857  0.93053539  0.26500752     0.36330
H1071       H  0.23185467  0.99014852  0.35208023     0.16700
O1072       O  0.18346057  0.94166990  0.40675958    -0.60220
H1073       H  0.14206987  0.87762596  0.27167999     0.16710
O1074       O  0.18455626  0.92872741  0.21851547    -0.60320
H1075       H  0.19965773  0.90039428  0.21001218     0.43710
H1076       H  0.18461023  0.97353451  0.41523917     0.43660
C1077       C  0.15865308  0.34740464  0.89632979    -0.05400
C1078       C  0.15266799  0.30085371  0.90175060    -0.32830
C1079       C  0.18080062  0.27476277  0.92976961     0.36420
C1080       C  0.21192624  0.29523310  0.95854051    -0.05760
C1081       C  0.21647744  0.34147003  0.95602709    -0.32730
C1082       C  0.19048566  0.36736629  0.92587784     0.36330
H1083       H  0.12486532  0.28389173  0.88648136     0.16700
O1084       O  0.17367279  0.22988597  0.93298127    -0.60220
H1085       H  0.23855514  0.35810217  0.97980932     0.16710
O1086       O  0.19438428  0.41277920  0.92752807    -0.60320
H1087       H  0.22610917  0.41892790  0.92103660     0.43710
H1088       H  0.19090290  0.21641901  0.90780975     0.43660
C1089       C  0.28473909  0.22634744  0.04433167    -0.05400
C1090       C  0.33140874  0.22699082  0.04477282    -0.32830
C1091       C  0.35634281  0.19958797  0.07386004     0.36420
C1092       C  0.33475567  0.17082467  0.10472844    -0.05760
C1093       C  0.28840067  0.17864610  0.11076377    -0.32730
C1094       C  0.26307362  0.20322007  0.07898828     0.36330
H1095       H  0.34892445  0.24680368  0.02015811     0.16700
O1096       O  0.40191247  0.20199763  0.07212431    -0.60220
H1097       H  0.27075807  0.16400537  0.13867621     0.16710
O1098       O  0.21742260  0.20231806  0.08093679    -0.60320
H1099       H  0.20873846  0.17415727  0.06592354     0.43710
H1100       H  0.40968654  0.23068383  0.08666873     0.43660
C1101       C  0.20465921  0.28857768  0.04247417    -0.05400
C1102       C  0.22688947  0.30937120  0.07864949    -0.32830
C1103       C  0.20254434  0.33148829  0.11255195     0.36420
C1104       C  0.15567780  0.33925398  0.10663884    -0.05760
C1105       C  0.13422410  0.31265974  0.07378361    -0.32730
C1106       C  0.15791788  0.28678846  0.04326515     0.36330
H1107       H  0.26298436  0.30876803  0.08059805     0.16700
O1108       O  0.22507668  0.34439265  0.15103208    -0.60220
H1109       H  0.09858709  0.31223524  0.07012023     0.16710
O1110       O  0.13458577  0.26123905  0.01290217    -0.60320
H1111       H  0.13517494  0.23084779  0.02606355     0.43710
H1112       H  0.21896484  0.32107978  0.17388364     0.43660
C1113       C  0.27941422  0.21965222  0.96049777    -0.05400
C1114       C  0.31189029  0.24037282  0.93436451    -0.32830
C1115       C  0.34041532  0.21538573  0.90588812     0.36420
C1116       C  0.33490249  0.16845570  0.90111140    -0.05760
C1117       C  0.30477074  0.14837793  0.93111095    -0.32730
C1118       C  0.27592534  0.17319979  0.95818402     0.36330
H1119       H  0.31816243  0.27544942  0.93955084     0.16700
O1120       O  0.37745368  0.23596879  0.88930763    -0.60220
H1121       H  0.30226865  0.11248166  0.93247746     0.16710
O1122       O  0.24546891  0.15144747  0.98429174    -0.60320
H1123       H  0.26326748  0.13509443  0.00771217     0.43710
H1124       H  0.36663277  0.26326757  0.87344207     0.43660
C1125       C  0.59976849  0.66453356  0.66527192    -0.05400
C1126       C  0.60341281  0.71130336  0.67005094    -0.32830
C1127       C  0.57236685  0.73647243  0.69446750     0.36420
C1128       C  0.53870456  0.71521410  0.71855951    -0.05760
C1129       C  0.53780972  0.66841752  0.71831751    -0.32730
C1130       C  0.56680894  0.64330368  0.69125553     0.36330
H1131       H  0.62935658  0.72970003  0.65363314     0.16700
O1132       O  0.57270732  0.78179997  0.69039855    -0.60220
H1133       H  0.51207309  0.65125927  0.73668086     0.16710
O1134       O  0.56297007  0.59784011  0.69072246    -0.60320
H1135       H  0.53543917  0.59185226  0.67282956     0.43710
H1136       H  0.60149684  0.79121260  0.70407469     0.43660
C1137       C  0.66304811  0.60651374  0.66272438    -0.05400
C1138       C  0.66524260  0.60936067  0.71095711    -0.32830
C1139       C  0.69039234  0.57884840  0.73703280     0.36420
C1140       C  0.71416362  0.54463563  0.71529285    -0.05760
C1141       C  0.71739104  0.54528665  0.66786384    -0.32730
C1142       C  0.69336217  0.57636780  0.64172800     0.36330
H1143       H  0.64671154  0.63438367  0.72942698     0.16700
O1144       O  0.68682151  0.57926873  0.78344520    -0.60220
H1145       H  0.73707523  0.51994315  0.65079630     0.16710
O1146       O  0.69976266  0.57688414  0.59561534    -0.60320
H1147       H  0.73030882  0.58827624  0.59129263     0.43710
H1148       H  0.70557978  0.60429713  0.79386263     0.43660
C1149       C  0.65822724  0.66968792  0.60399271    -0.05400
C1150       C  0.63440858  0.69568455  0.57162688    -0.32830
C1151       C  0.65560182  0.72621745  0.54414747     0.36420
C1152       C  0.70234416  0.72946213  0.54548926    -0.05760
C1153       C  0.72631466  0.70698043  0.57971236    -0.32730
C1154       C  0.70443520  0.67954829  0.61050856     0.36330
H1155       H  0.59860608  0.69344193  0.56824657     0.16700
O1156       O  0.63062054  0.74992749  0.51286239    -0.60220
H1157       H  0.76227527  0.70943903  0.58183793     0.16710
O1158       O  0.72888987  0.66358997  0.64677737    -0.60320
H1159       H  0.72359997  0.68527310  0.67160296     0.43710
H1160       H  0.62777301  0.78029513  0.52578163     0.43660
C1161       C  0.39002890  0.33939224  0.65325946    -0.05400
C1162       C  0.41902602  0.30914046  0.63075547    -0.32830
C1163       C  0.44813566  0.28029999  0.65467645     0.36420
C1164       C  0.45029830  0.28144013  0.70240887    -0.05760
C1165       C  0.42100526  0.31021602  0.72516289    -0.32730
C1166       C  0.38854643  0.33526101  0.70166767     0.36330
H1167       H  0.41863824  0.30721272  0.59403817     0.16700
O1168       O  0.47702549  0.25357218  0.63089739    -0.60220
H1169       H  0.42277565  0.31249716  0.76190876     0.16710
O1170       O  0.35478865  0.35335013  0.72696024    -0.60320
H1171       H  0.33021430  0.33165831  0.72492404     0.43710
H1172       H  0.46349926  0.22365225  0.63119439     0.43660
C1173       C  0.33400061  0.40496033  0.65527389    -0.05400
C1174       C  0.36106165  0.43263899  0.68216561    -0.32830
C1175       C  0.34313352  0.45897418  0.71635240     0.36420
C1176       C  0.29669312  0.46668438  0.71856113    -0.05760
C1177       C  0.26896960  0.44092328  0.69078177    -0.32730
C1178       C  0.28685035  0.40798840  0.66222121     0.36330
H1179       H  0.39708422  0.42988151  0.68008622     0.16700
O1180       O  0.37165442  0.47486266  0.74887383    -0.60220
H1181       H  0.23312448  0.44568969  0.69162609     0.16710
O1182       O  0.25745010  0.37889799  0.64293466    -0.60320
H1183       H  0.25480191  0.35444082  0.66533976     0.43710
H1184       H  0.36966939  0.45373285  0.77463886     0.43660
C1185       C  0.32515671  0.34280058  0.59571970    -0.05400
C1186       C  0.31893199  0.29754649  0.60656153    -0.32830
C1187       C  0.29473294  0.26913748  0.57842594     0.36420
C1188       C  0.27090136  0.28585293  0.54033074    -0.05760
C1189       C  0.26870062  0.33264148  0.53536069    -0.32730
C1190       C  0.29719809  0.36060283  0.56061805     0.36330
H1191       H  0.33507567  0.28221176  0.63572014     0.16700
O1192       O  0.30070860  0.22462523  0.58529957    -0.60220
H1193       H  0.25040154  0.34686037  0.50672639     0.16710
O1194       O  0.29810550  0.40493825  0.54977366    -0.60320
H1195       H  0.26976672  0.41785572  0.56118313     0.43710
H1196       H  0.28704267  0.21837504  0.61515315     0.43660
C1197       C  0.65290308  0.40447343  0.33179376    -0.05400
C1198       C  0.69998289  0.40324247  0.32782646    -0.32830
C1199       C  0.72245746  0.43452696  0.30166256     0.36420
C1200       C  0.69840481  0.46324323  0.27229366    -0.05760
C1201       C  0.65179340  0.45884251  0.27039947    -0.32730
C1202       C  0.62919423  0.43420356  0.30282071     0.36330
H1203       H  0.72063258  0.37988494  0.34669112     0.16700
O1204       O  0.76725411  0.43946084  0.30887969    -0.60220
H1205       H  0.63205361  0.47742127  0.24610856     0.16710
O1206       O  0.58349744  0.43741348  0.30402466    -0.60320
H1207       H  0.57696754  0.46540769  0.32067124     0.43710
H1208       H  0.78119896  0.41044117  0.30069164     0.43660
C1209       C  0.66155300  0.34737979  0.39577549    -0.05400
C1210       C  0.68998619  0.37071838  0.42578944    -0.32830
C1211       C  0.71972526  0.34823932  0.45499016     0.36420
C1212       C  0.71621507  0.30191316  0.46118279    -0.05760
C1213       C  0.68752937  0.27897081  0.43206069    -0.32730
C1214       C  0.66686047  0.30022712  0.39533729     0.36330
H1215       H  0.69099763  0.40667697  0.42486466     0.16700
O1216       O  0.75098066  0.37232493  0.47806802    -0.60220
H1217       H  0.67899004  0.24498747  0.43856262     0.16710
O1218       O  0.65198384  0.27410546  0.36027525    -0.60320
H1219       H  0.67470187  0.27692827  0.33628196     0.43710
H1220       H  0.77921730  0.36707467  0.46157517     0.43660
C1221       C  0.59570484  0.34203990  0.33915660    -0.05400
C1222       C  0.59297855  0.34066169  0.29085582    -0.32830
C1223       C  0.56015597  0.31618071  0.26811450     0.36420
C1224       C  0.53323913  0.28733839  0.29271596    -0.05760
C1225       C  0.54149668  0.28231744  0.33927982    -0.32730
C1226       C  0.56914495  0.31118223  0.36304052     0.36330
H1227       H  0.61497999  0.35935912  0.26967185     0.16700
O1228       O  0.55310148  0.32264989  0.22241760    -0.60220
H1229       H  0.52517830  0.25691763  0.35829662     0.16710
O1230       O  0.57354799  0.30565630  0.40932289    -0.60320
H1231       H  0.54298485  0.30763659  0.42184005     0.43710
H1232       H  0.57963576  0.30947752  0.20741726     0.43660
C1233       C  0.39348935  0.66937794  0.33483152    -0.05400
C1234       C  0.42891413  0.64546945  0.31488209    -0.32830
C1235       C  0.45946216  0.66618454  0.28663524     0.36420
C1236       C  0.45688351  0.71259755  0.27891052    -0.05760
C1237       C  0.41984326  0.73616275  0.29524527    -0.32730
C1238       C  0.38748206  0.71490654  0.32139719     0.36330
H1239       H  0.43278355  0.61005189  0.32096404     0.16700
O1240       O  0.49276712  0.64088531  0.26739812    -0.60220
H1241       H  0.41658754  0.77162824  0.28947535     0.16710
O1242       O  0.34933370  0.73856246  0.33135860    -0.60320
H1243       H  0.35891164  0.76379636  0.35073228     0.43710
H1244       H  0.51190449  0.63022724  0.29304461     0.43660
C1245       C  0.28274702  0.73190058  0.45475797    -0.05400
C1246       C  0.32939874  0.73413356  0.45484801    -0.32830
C1247       C  0.35494810  0.70681265  0.42654885     0.36420
C1248       C  0.33385203  0.67745658  0.39549228    -0.05760
C1249       C  0.28677583  0.68215719  0.39019111    -0.32730
C1250       C  0.26130339  0.70782075  0.42023810     0.36330
H1251       H  0.34632160  0.75407587  0.48027441     0.16700
O1252       O  0.40052659  0.71036960  0.42837557    -0.60220
H1253       H  0.26860464  0.66490431  0.36384376     0.16710
O1254       O  0.21571815  0.70445991  0.41913355    -0.60320
H1255       H  0.20571313  0.72151597  0.39190931     0.43710
H1256       H  0.40957685  0.70247401  0.45995437     0.43660
C1257       C  0.32994488  0.61250825  0.33884540    -0.05400
C1258       C  0.30004089  0.58533529  0.36294577    -0.32830
C1259       C  0.27190646  0.55527474  0.34100720     0.36420
C1260       C  0.27360232  0.54982625  0.29363023    -0.05760
C1261       C  0.30025790  0.57866882  0.26896845    -0.32730
C1262       C  0.32697319  0.61054475  0.29039224     0.36330
H1263       H  0.29781374  0.58794267  0.39953274     0.16700
O1264       O  0.24449616  0.52954494  0.36672066    -0.60220
H1265       H  0.30335889  0.57458765  0.23294336     0.16710
O1266       O  0.34852285  0.63994729  0.26292109    -0.60320
H1267       H  0.37035362  0.62190373  0.24544313     0.43710
H1268       H  0.21444571  0.54349382  0.36344880     0.43660
C1269       C  0.66048486  0.66684093  0.40221371    -0.05400
C1270       C  0.66678878  0.71317990  0.39430338    -0.32830
C1271       C  0.68954951  0.74007756  0.42540457     0.36420
C1272       C  0.71130911  0.72042440  0.46279955    -0.05760
C1273       C  0.71080727  0.67403572  0.46739802    -0.32730
C1274       C  0.68326697  0.64798466  0.44035946     0.36330
H1275       H  0.65256725  0.73004369  0.36501810     0.16700
O1276       O  0.68674938  0.78552204  0.42113104    -0.60220
H1277       H  0.72838913  0.65815551  0.49559974     0.16710
O1278       O  0.68206944  0.60337114  0.44981245    -0.60320
H1279       H  0.66716878  0.60098928  0.47963799     0.43710
H1280       H  0.70310845  0.79273268  0.39304282     0.43660
C1281       C  0.60110799  0.67171161  0.34062960    -0.05400
C1282       C  0.56871405  0.69870363  0.36205325    -0.32830
C1283       C  0.53790848  0.72368068  0.33695429     0.36420
C1284       C  0.53868811  0.72235197  0.28926104    -0.05760
C1285       C  0.57551993  0.70298001  0.26786166    -0.32730
C1286       C  0.60852536  0.68066346  0.29366942     0.36330
H1287       H  0.56711063  0.70066021  0.39866560     0.16700
O1288       O  0.50523299  0.74704168  0.35933819    -0.60220
H1289       H  0.57851398  0.70455530  0.23128499     0.16710
O1290       O  0.64888633  0.67104233  0.27390731    -0.60320
H1291       H  0.64224297  0.65601270  0.24461882     0.43710
H1292       H  0.51465912  0.77852498  0.35842235     0.43660
C1293       C  0.65630035  0.60564327  0.33946081    -0.05400
C1294       C  0.63273482  0.58516800  0.30323127    -0.32830
C1295       C  0.65534971  0.56098276  0.26953387     0.36420
C1296       C  0.69900136  0.54547522  0.27840958    -0.05760
C1297       C  0.72018255  0.55921017  0.31835100    -0.32730
C1298       C  0.70234650  0.59373550  0.34433057     0.36330
H1299       H  0.59752212  0.59237796  0.29811719     0.16700
O1300       O  0.63555733  0.55363108  0.22777492    -0.60220
H1301       H  0.75245760  0.54509575  0.32784205     0.16710
O1302       O  0.73111580  0.61478305  0.37324444    -0.60320
H1303       H  0.74228252  0.64049908  0.35581152     0.43710
H1304       H  0.60346382  0.54807101  0.23295919     0.43660
C1305       C  0.33086828  0.40541048  0.34574755    -0.05400
C1306       C  0.35176031  0.43563504  0.31620468    -0.32830
C1307       C  0.32739172  0.46407590  0.28765355     0.36420
C1308       C  0.28089078  0.46727693  0.29134562    -0.05760
C1309       C  0.25981891  0.44123739  0.32393557    -0.32730
C1310       C  0.28396225  0.41075506  0.35122720     0.36330
H1311       H  0.38780078  0.43544896  0.31349151     0.16700
O1312       O  0.34949997  0.48971181  0.25680363    -0.60220
H1313       H  0.22517444  0.44744772  0.33151059     0.16710
O1314       O  0.26219846  0.39186766  0.38696251    -0.60320
H1315       H  0.23812055  0.37371573  0.37326284     0.43710
H1316       H  0.36748177  0.51080336  0.27509527     0.43660
C1317       C  0.33661143  0.34115265  0.40580329    -0.05400
C1318       C  0.30654075  0.31064200  0.38611825    -0.32830
C1319       C  0.28547803  0.27793599  0.41206438     0.36420
C1320       C  0.29566911  0.27359718  0.45908470    -0.05760
C1321       C  0.33450598  0.29506544  0.47390497    -0.32730
C1322       C  0.35053728  0.33200990  0.45135318     0.36330
H1323       H  0.29931259  0.31231620  0.34997376     0.16700
O1324       O  0.26030539  0.24778752  0.38904752    -0.60220
H1325       H  0.34843320  0.28822836  0.50734828     0.16710
O1326       O  0.37967240  0.35816820  0.47516371    -0.60320
H1327       H  0.40678892  0.33947391  0.48069049     0.43710
H1328       H  0.28115356  0.22304326  0.38143003     0.43660
C1329       C  0.39051368  0.34129093  0.34290565    -0.05400
C1330       C  0.41304185  0.30429947  0.36344036    -0.32830
C1331       C  0.43814563  0.27392974  0.33778968     0.36420
C1332       C  0.45055840  0.28591874  0.29381329    -0.05760
C1333       C  0.43038497  0.32327611  0.27388878    -0.32730
C1334       C  0.39491321  0.34477859  0.29492108     0.36330
H1335       H  0.40982017  0.29725146  0.39915165     0.16700
O1336       O  0.45050303  0.23300296  0.35533838    -0.60220
H1337       H  0.44084984  0.33485385  0.24095155     0.16710
O1338       O  0.36393946  0.36523503  0.26716404    -0.60320
H1339       H  0.33887954  0.34411721  0.26484015     0.43710
H1340       H  0.45768853  0.23718040  0.38805673     0.43660
C1341       C  0.64969725  0.40368355  0.66916366    -0.05400
C1342       C  0.63072031  0.44386700  0.68423640    -0.32830
C1343       C  0.65329340  0.47145687  0.71423205     0.36420
C1344       C  0.69903506  0.46363150  0.72396585    -0.05760
C1345       C  0.71709569  0.42173489  0.71260712    -0.32730
C1346       C  0.69070765  0.39015247  0.69024812     0.36330
H1347       H  0.59835024  0.45506754  0.67242739     0.16700
O1348       O  0.63057038  0.50673548  0.73317194    -0.60220
H1349       H  0.75150748  0.41310156  0.71982654     0.16710
O1350       O  0.70685395  0.34738931  0.68654679    -0.60320
H1351       H  0.69877315  0.33265357  0.71537759     0.43710
H1352       H  0.61851158  0.52474556  0.70742937     0.43660
C1353       C  0.53190127  0.29293407  0.71604518    -0.05400
C1354       C  0.52410821  0.33900279  0.71032127    -0.32830
C1355       C  0.55160118  0.36533015  0.68370085     0.36420
C1356       C  0.59167274  0.34731895  0.66567056    -0.05760
C1357       C  0.60418723  0.30436728  0.68011625    -0.32730
C1358       C  0.57415791  0.27651563  0.70203568     0.36330
H1359       H  0.49390602  0.35446907  0.72280799     0.16700
O1360       O  0.53663823  0.40739747  0.67276085    -0.60220
H1361       H  0.63629904  0.29038939  0.67095978     0.16710
O1362       O  0.58575551  0.23272094  0.70488139    -0.60320
H1363       H  0.61232798  0.23140328  0.72539258     0.43710
H1364       H  0.53352181  0.42351345  0.70200532     0.43660
C1365       C  0.65399777  0.34531083  0.60444026    -0.05400
C1366       C  0.69736669  0.35966113  0.59389206    -0.32830
C1367       C  0.72636714  0.33421647  0.56707990     0.36420
C1368       C  0.71068723  0.29597090  0.54494384    -0.05760
C1369       C  0.66657175  0.28301495  0.55200070    -0.32730
C1370       C  0.63822451  0.30720830  0.58090540     0.36330
H1371       H  0.70931541  0.39122882  0.60627019     0.16700
O1372       O  0.76998149  0.34705467  0.56181067    -0.60220
H1373       H  0.65306338  0.25557129  0.53257009     0.16710
O1374       O  0.59416546  0.29550245  0.58293438    -0.60320
H1375       H  0.59403943  0.26456293  0.59473623     0.43710
H1376       H  0.77044601  0.38006545  0.56121232     0.43660
C1377       C  0.39382554  0.67377007  0.66025801    -0.05400
C1378       C  0.39082817  0.67822013  0.70814773    -0.32830
C1379       C  0.42326968  0.70048422  0.73351067     0.36420
C1380       C  0.45640642  0.72410885  0.71105179    -0.05760
C1381       C  0.45446238  0.72727682  0.66357252    -0.32730
C1382       C  0.42335256  0.70318926  0.63822973     0.36330
H1383       H  0.36415642  0.66357200  0.72702632     0.16700
O1384       O  0.42463388  0.69532700  0.77982948    -0.60220
H1385       H  0.47875098  0.74697748  0.64582789     0.16710
O1386       O  0.42203583  0.70888462  0.59193627    -0.60320
H1387       H  0.40863145  0.73885724  0.58677079     0.43710
H1388       H  0.39705296  0.70998514  0.79111855     0.43660
C1389       C  0.33243788  0.66873889  0.60072284    -0.05400
C1390       C  0.31370575  0.64838694  0.56200361    -0.32830
C1391       C  0.28534109  0.67150441  0.53239344     0.36420
C1392       C  0.27822444  0.71768784  0.53764032    -0.05760
C1393       C  0.29458703  0.73827105  0.57691748    -0.32730
C1394       C  0.31881030  0.71370841  0.60972536     0.36330
H1395       H  0.31833929  0.61333440  0.55566859     0.16700
O1396       O  0.26420901  0.64845376  0.49824435    -0.60220
H1397       H  0.28903479  0.77351404  0.58234055     0.16710
O1398       O  0.32709712  0.73357474  0.65092908    -0.60320
H1399       H  0.34621067  0.75947546  0.64454638     0.43710
H1400       H  0.28822806  0.63535533  0.47933137     0.43660
C1401       C  0.33716801  0.60934282  0.66421601    -0.05400
C1402       C  0.36085434  0.58658840  0.69932025    -0.32830
C1403       C  0.33839041  0.56315387  0.73285896     0.36420
C1404       C  0.29481318  0.54891899  0.72433429    -0.05760
C1405       C  0.27160461  0.56733448  0.68716834    -0.32730
C1406       C  0.29039637  0.60070877  0.66067156     0.36330
H1407       H  0.39644615  0.59106231  0.70363899     0.16700
O1408       O  0.35944220  0.55410472  0.77349031    -0.60220
H1409       H  0.23784086  0.55681969  0.67971984     0.16710
O1410       O  0.26230213  0.62266938  0.63106434    -0.60320
H1411       H  0.24941423  0.64769530  0.64879539     0.43710
H1412       H  0.34909608  0.57785785  0.79441277     0.43660
loop_ 
_geom_bond_atom_site_label_1 
_geom_bond_atom_site_label_2 
_geom_bond_distance 
_geom_bond_site_symmetry_2 
_ccdc_geom_bond_type 
C1           C22   1.567       .  S
C1         C1377   1.567       .  S
C1         C1389   1.556       .  S
C1         C1401   1.567       .  S
N2            N3   1.329       .  A
N2            N8   1.318       .  A
N2          Mn31   2.257       .  S
N3           C10   1.363       .  A
N4            N6   1.319       .  A
N4            N5   1.321       .  A
N4          Mn20   2.237       .  S
N5           C11   1.361       .  A
N6            N7   1.323       .  A
N6          Mn31   2.195       .  S
N7           C11   1.353       .  A
N8            N9   1.326       .  A
N8          Mn20   2.228       .  S
N9           C10   1.360       .  A
C10          C52   1.571       .  S
C11          C48   1.536       .  S
N12          N18   1.318       .  A
N12          N13   1.328       .  A
N12         Mn42   2.243       .  S
N13          C21   1.362       .  A
N14          N15   1.327       .  A
N14          N16   1.318       .  A
N14         Mn20   2.243       .  S
N15          C22   1.363       .  A
N16          N17   1.323       .  A
N16         Mn42   2.237       .  S
N17          C22   1.358       .  A
N18          N19   1.326       .  A
N18         Mn20   2.245       .  S
N19          C21   1.361       .  A
Mn20        Cl44   2.569       .  S
C21          C50   1.575       .  S
N23          N24   1.321       .  A
N23          N29   1.315       .  A
N23         Mn31   2.231       .  S
N24          C32   1.357       .  A
N25          N27   1.318       .  A
N25          N26   1.324       .  A
N25         Mn43   2.230       .  S
N26          C33   1.359       .  A
N27          N28   1.322       .  A
N27         Mn31   2.214       .  S
N28          C33   1.355       .  A
N29          N30   1.328       .  A
N29         Mn43   2.223       .  S
N30          C32   1.361       .  A
Mn31        Cl44   2.555       .  S
C32          C51   1.559       .  S
C33          C47   1.536       .  S
N34          N35   1.326       .  A
N34          N40   1.317       .  A
N34         Mn42   2.232       .  S
N35          C45   1.361       .  A
N36          N37   1.324       .  A
N36          N38   1.317       .  A
N36         Mn43   2.227       .  S
N37          C46   1.359       .  A
N38          N39   1.324       .  A
N38         Mn42   2.238       .  S
N39          C46   1.360       .  A
N40          N41   1.325       .  A
N40         Mn43   2.241       .  S
N41          C45   1.359       .  A
Mn42        Cl44   2.568       .  S
Mn43        Cl44   2.569       .  S
C45          C53   1.568       .  S
C46          C49   1.563       .  S
C47        C1341   1.549       .  S
C47        C1356   1.550       .  S
C47        C1365   1.561       .  S
C48        C1305   1.558       .  S
C48        C1317   1.559       .  S
C48        C1329   1.567       .  S
C49        C1269   1.561       .  S
C49        C1281   1.564       .  S
C49        C1293   1.561       .  S
C50        C1233   1.559       .  S
C50        C1248   1.559       .  S
C50        C1257   1.572       .  S
C51        C1197   1.557       .  S
C51        C1209   1.560       .  S
C51        C1221   1.564       .  S
C52        C1161   1.580       .  S
C52        C1173   1.556       .  S
C52        C1185   1.564       .  S
C53        C1125   1.558       .  S
C53        C1137   1.559       .  S
C53        C1149   1.558       .  S
C54          C55   1.362       .  D
C54        C1089   1.490       .  S
C54        C1113   1.490   1_554  S
C55        C1080   1.490   1_554  S
C55        C1101   1.490       .  S
C56          C57   1.362       .  D
C56        C1044   1.519       .  S
C56        C1065   1.509   1_545  S
C57        C1032   1.487   1_545  S
C57        C1053   1.479       .  S
C58          C59   1.353       .  D
C58         C993   1.493       .  S
C58        C1020   1.458   1_655  S
C59         C981   1.507   1_655  S
C59        C1005   1.484       .  S
C60          C61   1.363       .  D
C60        C1224   1.490       .  S
C60        C1332   1.478       .  S
C61         C957   1.481       .  S
C61         C969   1.489       .  S
C62          C63   1.379       .  D
C62        C1188   1.525       .  S
C62        C1320   1.533       .  S
C63         C933   1.480       .  S
C63         C945   1.483       .  S
C64          C65   1.367       .  D
C64        C1260   1.498       .  S
C64        C1308   1.484       .  S
C65         C909   1.495       .  S
C65         C924   1.480       .  S
C66          C67   1.383   1_556  D
C66         C861   1.544   1_556  S
C66         C876   1.495       .  S
C67         C885   1.502       .  S
C67         C900   1.532   1_554  S
C68          C69   1.368       .  D
C68         C813   1.496       .  S
C68         C825   1.504   1_554  S
C69         C840   1.495       .  S
C69         C852   1.496   1_554  S
C70          C71   1.358       .  D
C70         C789   1.502   1_455  S
C70         C801   1.506       .  S
C71         C765   1.479       .  S
C71         C777   1.475   1_455  S
C72          C73   1.375       .  D
C72        C1200   1.503       .  S
C72        C1296   1.486       .  S
C73         C741   1.517       .  S
C73         C756   1.503       .  S
C74          C75   1.377       .  D
C74        C1176   1.501       .  S
C74        C1404   1.488       .  S
C75         C717   1.524       .  S
C75         C729   1.508       .  S
C76          C85   1.549       .  S
C76         C681   1.572       .  S
C76         C693   1.557       .  S
C76         C705   1.554       .  S
N77          N78   1.322       .  A
N77          N83   1.316       .  A
N77        Mn106   2.225       .  S
N78          C85   1.360       .  A
N79          N81   1.316       .  A
N79          N80   1.326       .  A
N79         Mn95   2.240   1_455  S
N80          C86   1.360       .  A
N81          N82   1.322       .  A
N81        Mn106   2.219   1_455  S
N82          C86   1.358       .  A
N83          N84   1.321       .  A
N83         Mn95   2.205       .  S
N84          C85   1.352       .  A
C86         C124   1.553       .  S
N87          N93   1.314       .  A
N87          N88   1.322       .  A
N87        Mn117   2.216   1_455  S
N88          C96   1.359       .  A
N89          N90   1.321       .  A
N89          N91   1.317       .  A
N89         Mn95   2.201   1_554  S
N90          C97   1.355       .  A
N91          N92   1.321       .  A
N91        Mn117   2.220       .  S
N92          C97   1.356       .  A
N93          N94   1.319       .  A
N93         Mn95   2.203   1_454  S
N94          C96   1.357       .  A
Mn95       Cl119   2.560       .  S
C96         C129   1.560       .  S
C97         C126   1.529       .  S
N98          N99   1.327       .  A
N98         N104   1.315       .  A
N98        Mn106   2.228   1_455  S
N99         C107   1.360       .  A
N100        N102   1.317       .  A
N100        N101   1.326       .  A
N100       Mn118   2.220   1_655  S
N101        C108   1.359       .  A
N102        N103   1.328       .  A
N102       Mn106   2.268       .  S
N103        C108   1.365       .  A
N104        N105   1.325       .  A
N104       Mn118   2.242       .  S
N105        C107   1.364       .  A
Mn106      Cl119   2.552       .  S
C107        C123   1.560       .  S
C108        C125   1.574       .  S
N109        N110   1.325       .  A
N109        N115   1.316       .  A
N109       Mn117   2.214       .  S
N110        C120   1.357       .  A
N111        N112   1.322       .  A
N111        N113   1.316       .  A
N111       Mn118   2.218   1_554  S
N112        C121   1.357       .  A
N113        N114   1.324       .  A
N113       Mn117   2.225   1_455  S
N114        C121   1.360       .  A
N115        N116   1.326       .  A
N115       Mn118   2.264   1_654  S
N116        C120   1.365       .  A
Mn117      Cl119   2.555   1_554  S
Mn118      Cl119   2.560   1_455  S
C120        C122   1.568       .  S
C121        C130   1.549       .  S
C122        C753   1.571       .  S
C122        C837   1.569       .  S
C122       C1008   1.565       .  S
C123        C732   1.576       .  S
C123        C804   1.565       .  S
C123       C1077   1.577       .  S
C124        C669   1.566       .  S
C124        C720   1.557       .  S
C124        C873   1.561       .  S
C125        C657   1.563       .  S
C125        C792   1.556       .  S
C125        C849   1.563       .  S
C126        C633   1.560       .  S
C126        C645   1.561       .  S
C126        C744   1.559       .  S
C127        C128   1.367       .  D
C127       C1140   1.490       .  S
C127       C1344   1.504       .  S
C128        C660   1.487       .  S
C128        C708   1.487       .  S
C129        C621   1.551       .  S
C129        C864   1.561       .  S
C129        C921   1.559       .  S
C130        C912   1.563       .  S
C130        C984   1.568       .  S
C130       C1104   1.562       .  S
C131        C132   1.369   1_565  D
C131        C573   1.488       .  S
C131        C588   1.505   1_565  S
C132        C597   1.487       .  S
C132        C612   1.496   1_545  S
C133        C134   1.366       .  D
C133        C552   1.486       .  S
C133        C564   1.492       .  S
C134       C1236   1.501       .  S
C134       C1284   1.484       .  S
C135        C136   1.387       .  D
C135       C1164   1.497       .  S
C135       C1353   1.530       .  S
C136        C528   1.543       .  S
C136        C540   1.502       .  S
C137        C158   1.569       .  S
C137        C516   1.584       .  S
C137        C537   1.561       .  S
C137        C828   1.558       .  S
N138        N139   1.327       .  A
N138        N144   1.316       .  A
N138       Mn167   2.236   1_556  S
N139        C146   1.359       .  A
N140        N142   1.317       .  A
N140        N141   1.325       .  A
N140       Mn156   2.249   1_565  S
N141        C147   1.365       .  A
N142        N143   1.319       .  A
N142       Mn167   2.199       .  S
N143        C147   1.352       .  A
N144        N145   1.326       .  A
N144       Mn156   2.230   1_566  S
N145        C146   1.360       .  A
C146        C186   1.556       .  S
C147        C183   1.546       .  S
N148        N154   1.317       .  A
N148        N149   1.322       .  A
N148       Mn178   2.220       .  S
N149        C157   1.356       .  A
N150        N151   1.323       .  A
N150        N152   1.318       .  A
N150       Mn156   2.239   1_556  S
N151        C158   1.360       .  A
N152        N153   1.328       .  A
N152       Mn178   2.245   1_556  S
N153        C158   1.362       .  A
N154        N155   1.329       .  A
N154       Mn156   2.244       .  S
N155        C157   1.363       .  A
Mn156      Cl180   2.572       .  S
C157        C191   1.564       .  S
N159        N160   1.326       .  A
N159        N165   1.315       .  A
N159       Mn167   2.239       .  S
N160        C168   1.362       .  A
N161        N163   1.316       .  A
N161        N162   1.321       .  A
N161       Mn179   2.233   1_566  S
N162        C169   1.361       .  A
N163        N164   1.322       .  A
N163       Mn167   2.195   1_556  S
N164        C169   1.353       .  A
N165        N166   1.324       .  A
N165       Mn179   2.214   1_565  S
N166        C168   1.358       .  A
Mn167      Cl180   2.549   1_565  S
C168        C187   1.558       .  S
C169        C184   1.538       .  S
N170        N171   1.319       .  A
N170        N176   1.318       .  A
N170       Mn178   2.219   1_556  S
N171        C181   1.357       .  A
N172        N173   1.323       .  A
N172        N174   1.318       .  A
N172       Mn179   2.221       .  S
N173        C182   1.357       .  A
N174        N175   1.322       .  A
N174       Mn178   2.223       .  S
N175        C182   1.358       .  A
N176        N177   1.326       .  A
N176       Mn179   2.220   1_556  S
N177        C181   1.358       .  A
Mn178      Cl180   2.557       .  S
Mn179      Cl180   2.565       .  S
C181        C185   1.542       .  S
C182        C190   1.547       .  S
C183        C489   1.546       .  S
C183        C501   1.559       .  S
C183        C561   1.574       .  S
C184        C477   1.566       .  S
C184        C609   1.570       .  S
C184        C897   1.555       .  S
C185        C525   1.557       .  S
C185        C600   1.571       .  S
C185       C1116   1.567       .  S
C186        C441   1.561       .  S
C186        C456   1.561       .  S
C186        C465   1.571       .  S
C187        C549   1.562       .  S
C187        C888   1.564       .  S
C187       C1029   1.572       .  S
C188        C189   1.364       .  D
C188       C1128   1.493       .  S
C188       C1380   1.487       .  S
C189        C468   1.492       .  S
C189        C480   1.488       .  S
C190        C972   1.553       .  S
C190       C1056   1.562       .  S
C190       C1092   1.565       .  S
C191        C429   1.549       .  S
C191        C816   1.568       .  S
C191        C960   1.573       .  S
C192        C193   1.361       .  D
C192        C624   1.479   1_655  S
C192        C648   1.491       .  S
C193        C405   1.493   1_655  S
C193        C417   1.478       .  S
C194        C195   1.385       .  D
C194        C432   1.523       .  S
C194        C504   1.494   1_545  S
C195        C384   1.497   1_545  S
C195        C393   1.496       .  S
C196        C197   1.374       .  D
C196        C357   1.497       .  S
C196        C369   1.504       .  S
C197       C1212   1.494       .  S
C197       C1368   1.487       .  S
C198        C199   1.366       .  D
C198       C1245   1.491       .  S
C198       C1392   1.494       .  S
C199        C333   1.483       .  S
C199        C345   1.493       .  S
C200        C209   1.555       .  S
C200        C360   1.564       .  S
C200        C396   1.560       .  S
C200        C996   1.559       .  S
N201        N202   1.321       .  A
N201        N207   1.317       .  A
N201       Mn230   2.205       .  S
N202        C209   1.358       .  A
N203        N205   1.310       .  A
N203        N204   1.325       .  A
N203       Mn219   2.185   1_455  S
N204        C210   1.357       .  A
N205        N206   1.313       .  A
N205       Mn230   2.214   1_455  S
N206        C210   1.354       .  A
N207        N208   1.324       .  A
N207       Mn219   2.241       .  S
N208        C209   1.359       .  A
C210        C253   1.539       .  S
N211        N217   1.315       .  A
N211        N212   1.325       .  A
N211       Mn241   2.222   1_455  S
N212        C220   1.362       .  A
N213        N214   1.326       .  A
N213        N215   1.316       .  A
N213       Mn219   2.196       .  S
N214        C221   1.354       .  A
N215        N216   1.318       .  A
N215       Mn241   2.228       .  S
N216        C221   1.360       .  A
N217        N218   1.321       .  A
N217       Mn219   2.217   1_455  S
N218        C220   1.355       .  A
Mn219      Cl243   2.552       .  S
C220        C254   1.553       .  S
C221        C249   1.544       .  S
N222        N223   1.329       .  A
N222        N228   1.319       .  A
N222       Mn230   2.242   1_465  S
N223        C231   1.361       .  A
N224        N226   1.316       .  A
N224        N225   1.326       .  A
N224       Mn242   2.240       .  S
N225        C232   1.361       .  A
N226        N227   1.326       .  A
N226       Mn230   2.227   1_565  S
N227        C232   1.359       .  A
N228        N229   1.324       .  A
N228       Mn242   2.261   1_455  S
N229        C231   1.363       .  A
Mn230      Cl243   2.571       .  S
C231        C247   1.574       .  S
C232        C246   1.569       .  S
N233        N234   1.332       .  A
N233        N239   1.320       .  A
N233       Mn241   2.269   1_565  S
N234        C244   1.366       .  A
N235        N236   1.329       .  A
N235        N237   1.316       .  A
N235       Mn242   2.248   1_455  S
N236        C245   1.366       .  A
N237        N238   1.324       .  A
N237       Mn241   2.228   1_465  S
N238        C245   1.356       .  A
N239        N240   1.325       .  A
N239       Mn242   2.253       .  S
N240        C244   1.360       .  A
Mn241      Cl243   2.567       .  S
Mn242      Cl243   2.557   1_565  S
C244        C250   1.579       .  S
C245        C248   1.573       .  S
C246        C321   1.551       .  S
C246        C381   1.569       .  S
C246        C420   1.554       .  S
C247        C336   1.570       .  S
C247        C408   1.563       .  S
C247       C1068   1.559       .  S
C248        C312   1.556       .  S
C248        C348   1.559       .  S
C248        C576   1.565       .  S
C249        C297   1.540       .  S
C249        C372   1.551       .  S
C249        C780   1.544       .  S
C250        C261   1.561       .  S
C250        C273   1.571       .  S
C250        C285   1.570       .  S
C251        C252   1.362       .  D
C251       C1152   1.490       .  S
C251       C1272   1.486       .  S
C252        C288   1.480       .  S
C252        C324   1.492       .  S
C253        C948   1.559       .  S
C253       C1017   1.542       .  S
C253       C1041   1.558       .  S
C254        C585   1.558       .  S
C254        C768   1.549       .  S
C254        C936   1.555       .  S
C255        C256   1.356       .  D
C255        C672   1.483   1_655  S
C255        C696   1.479       .  S
C256        C264   1.488       .  S
C256        C309   1.478   1_655  S
C257        C258   1.383       .  D
C257        C444   1.506   1_545  S
C257        C513   1.486       .  S
C258        C276   1.510   1_545  S
C258        C300   1.535       .  S
C259        C260   1.380       .  D
C259        C636   1.490   1_556  S
C259        C684   1.498       .  S
C260        C453   1.514       .  S
C260        C492   1.533   1_556  S
C261        C262   1.424       .  A
C261        C266   1.420       .  A
C262        C263   1.396       .  A
C262        H267   1.080       .  S
C263        C264   1.399       .  A
C263        O268   1.373       .  S
C264        C265   1.403       .  A
C265        C266   1.392       .  A
C265        H269   1.084       .  S
C266        O270   1.370       .  S
O268        H272   0.992       .  S
O270        H271   0.992       .  S
C273        C274   1.422       .  A
C273        C278   1.427       .  A
C274        C275   1.413       .  A
C274        H279   1.083       .  S
C275        C276   1.413       .  A
C275        O280   1.373       .  S
C276        C277   1.401       .  A
C277        C278   1.393       .  A
C277        H281   1.083       .  S
C278        O282   1.368       .  S
O280        H284   0.992   1_565  S
O282        H283   0.992       .  S
C285        C286   1.424       .  A
C285        C290   1.425       .  A
C286        C287   1.397       .  A
C286        H291   1.078       .  S
C287        C288   1.398       .  A
C287        O292   1.372       .  S
C288        C289   1.398       .  A
C289        C290   1.391       .  A
C289        H293   1.084       .  S
C290        O294   1.374       .  S
O292        H296   0.992       .  S
O294        H295   0.992       .  S
C297        C298   1.415       .  A
C297        C302   1.400       .  A
C298        C299   1.412       .  A
C298        H303   1.083       .  S
C299        C300   1.423       .  A
C299        O304   1.368       .  S
C300        C301   1.406       .  A
C301        C302   1.364       .  A
C301        H305   1.068       .  S
C302        O306   1.381       .  S
O304        H308   0.992       .  S
O306        H307   0.992       .  S
C309        C310   1.395       .  A
C309        C314   1.401       .  A
C310        C311   1.399       .  A
C310        H315   1.084       .  S
C311        C312   1.433       .  A
C311        O316   1.369       .  S
C312        C313   1.412       .  A
C313        C314   1.389       .  A
C313        H317   1.081       .  S
C314        O318   1.373       .  S
O316        H320   0.991       .  S
O318        H319   0.992   1_455  S
C321        C322   1.408       .  A
C321        C326   1.431       .  A
C322        C323   1.390       .  A
C322        H327   1.084       .  S
C323        C324   1.411       .  A
C323        O328   1.372       .  S
C324        C325   1.398       .  A
C325        C326   1.403       .  A
C325        H329   1.082       .  S
C326        O330   1.374       .  S
O328        H332   0.992       .  S
O330        H331   0.992       .  S
C333        C334   1.395       .  A
C333        C338   1.403       .  A
C334        C335   1.399       .  A
C334        H339   1.083       .  S
C335        C336   1.435       .  A
C335        O340   1.370       .  S
C336        C337   1.414       .  A
C337        C338   1.386       .  A
C337        H341   1.081       .  S
C338        O342   1.372       .  S
O340        H344   0.992       .  S
O342        H343   0.992       .  S
C345        C346   1.406       .  A
C345        C350   1.403       .  A
C346        C347   1.397       .  A
C346        H351   1.084       .  S
C347        C348   1.414       .  A
C347        O352   1.373       .  S
C348        C349   1.423       .  A
C349        C350   1.400       .  A
C349        H353   1.080       .  S
C350        O354   1.371       .  S
O352        H356   0.992       .  S
O354        H355   0.991       .  S
C357        C358   1.400       .  A
C357        C362   1.404       .  A
C358        C359   1.397       .  A
C358        H363   1.071       .  S
C359        C360   1.424       .  A
C359        O364   1.374       .  S
C360        C361   1.419       .  A
C361        C362   1.397       .  A
C361        H365   1.082       .  S
C362        O366   1.372       .  S
O364        H368   0.993       .  S
O366        H367   0.992       .  S
C369        C370   1.403       .  A
C369        C374   1.411       .  A
C370        C371   1.404       .  A
C370        H375   1.074       .  S
C371        C372   1.424       .  A
C371        O376   1.371       .  S
C372        C373   1.407       .  A
C373        C374   1.395       .  A
C373        H377   1.077       .  S
C374        O378   1.374       .  S
O376        H380   0.991       .  S
O378        H379   0.993       .  S
C381        C382   1.415       .  A
C381        C386   1.429       .  A
C382        C383   1.400       .  A
C382        H387   1.083       .  S
C383        C384   1.407       .  A
C383        O388   1.373       .  S
C384        C385   1.396       .  A
C385        C386   1.396       .  A
C385        H389   1.074       .  S
C386        O390   1.370       .  S
O388        H392   0.992   1_565  S
O390        H391   0.992       .  S
C393        C394   1.399       .  A
C393        C398   1.409       .  A
C394        C395   1.397       .  A
C394        H399   1.081       .  S
C395        C396   1.422       .  A
C395        O400   1.375       .  S
C396        C397   1.417       .  A
C397        C398   1.402       .  A
C397        H401   1.084       .  S
C398        O402   1.371       .  S
O400        H404   0.992       .  S
O402        H403   0.992       .  S
C405        C406   1.403       .  A
C405        C410   1.400       .  A
C406        C407   1.404       .  A
C406        H411   1.083       .  S
C407        C408   1.423       .  A
C407        O412   1.372       .  S
C408        C409   1.414       .  A
C409        C410   1.389       .  A
C409        H413   1.078       .  S
C410        O414   1.365       .  S
O412        H416   0.992       .  S
O414        H415   0.992       .  S
C417        C418   1.397       .  A
C417        C422   1.401       .  A
C418        C419   1.393       .  A
C418        H423   1.082       .  S
C419        C420   1.421       .  A
C419        O424   1.372       .  S
C420        C421   1.420       .  A
C421        C422   1.398       .  A
C421        H425   1.079       .  S
C422        O426   1.371       .  S
O424        H428   0.992       .  S
O426        H427   0.992       .  S
C429        C430   1.404       .  A
C429        C434   1.415       .  A
C430        C431   1.399       .  A
C430        H435   1.084       .  S
C431        C432   1.423       .  A
C431        O436   1.368       .  S
C432        C433   1.402       .  A
C433        C434   1.397       .  A
C433        H437   1.054       .  S
C434        O438   1.378       .  S
O436        H440   0.993       .  S
O438        H439   0.992       .  S
C441        C442   1.415       .  A
C441        C446   1.426       .  A
C442        C443   1.402       .  A
C442        H447   1.083       .  S
C443        C444   1.415       .  A
C443        O448   1.371   1_565  S
C444        C445   1.391       .  A
C445        C446   1.382       .  A
C445        H449   1.066       .  S
C446        O450   1.369       .  S
O448        H452   0.991       .  S
O450        H451   0.992       .  S
C453        C454   1.400       .  A
C453        C458   1.411       .  A
C454        C455   1.392       .  A
C454        H459   1.057       .  S
C455        C456   1.420       .  A
C455        O460   1.374       .  S
C456        C457   1.418       .  A
C457        C458   1.407       .  A
C457        H461   1.080       .  S
C458        O462   1.374       .  S
O460        H464   0.992       .  S
O462        H463   0.992   1_556  S
C465        C466   1.419       .  A
C465        C470   1.424       .  A
C466        C467   1.404       .  A
C466        H471   1.073       .  S
C467        C468   1.405       .  A
C467        O472   1.376       .  S
C468        C469   1.399       .  A
C469        C470   1.401       .  A
C469        H473   1.082       .  S
C470        O474   1.370       .  S
O472        H476   0.992       .  S
O474        H475   0.992       .  S
C477        C478   1.424       .  A
C477        C482   1.423       .  A
C478        C479   1.404       .  A
C478        H483   1.079       .  S
C479        C480   1.400       .  A
C479        O484   1.371       .  S
C480        C481   1.393       .  A
C481        C482   1.387       .  A
C481        H485   1.078       .  S
C482        O486   1.367       .  S
O484        H488   0.991       .  S
O486        H487   0.993       .  S
C489        C490   1.407       .  A
C489        C494   1.412       .  A
C490        C491   1.390       .  A
C490        H495   1.076       .  S
C491        C492   1.409       .  A
C491        O496   1.375   1_554  S
C492        C493   1.413       .  A
C493        C494   1.406       .  A
C493        H497   1.058       .  S
C494        O498   1.373       .  S
O496        H500   0.991       .  S
O498        H499   0.992       .  S
C501        C502   1.411       .  A
C501        C506   1.425       .  A
C502        C503   1.393       .  A
C502        H507   1.081       .  S
C503        C504   1.401       .  A
C503        O508   1.375       .  S
C504        C505   1.402       .  A
C505        C506   1.408       .  A
C505        H509   1.084       .  S
C506        O510   1.372       .  S
O508        H512   0.992       .  S
O510        H511   0.992       .  S
C513        C514   1.401       .  A
C513        C518   1.402       .  A
C514        C515   1.407       .  A
C514        H519   1.083       .  S
C515        C516   1.431       .  A
C515        O520   1.371       .  S
C516        C517   1.418       .  A
C517        C518   1.387       .  A
C517        H521   1.069       .  S
C518        O522   1.373       .  S
O520        H524   0.991       .  S
O522        H523   0.992       .  S
C525        C526   1.406       .  A
C525        C530   1.421       .  A
C526        C527   1.381       .  A
C526        H531   1.078       .  S
C527        C528   1.406       .  A
C527        O532   1.375       .  S
C528        C529   1.417       .  A
C529        C530   1.420       .  A
C529        H533   1.064       .  S
C530        O534   1.375       .  S
O532        H536   0.993       .  S
O534        H535   0.992       .  S
C537        C538   1.408       .  A
C537        C542   1.424       .  A
C538        C539   1.395       .  A
C538        H543   1.082       .  S
C539        C540   1.408       .  A
C539        O544   1.379       .  S
C540        C541   1.405       .  A
C541        C542   1.411       .  A
C541        H545   1.084       .  S
C542        O546   1.373       .  S
O544        H548   0.993       .  S
O546        H547   0.992       .  S
C549        C550   1.411       .  A
C549        C554   1.427       .  A
C550        C551   1.396       .  A
C550        H555   1.084       .  S
C551        C552   1.407       .  A
C551        O556   1.372       .  S
C552        C553   1.398       .  A
C553        C554   1.406       .  A
C553        H557   1.084       .  S
C554        O558   1.375       .  S
O556        H560   0.992       .  S
O558        H559   0.993       .  S
C561        C562   1.421       .  A
C561        C566   1.426       .  A
C562        C563   1.403       .  A
C562        H567   1.078       .  S
C563        C564   1.403       .  A
C563        O568   1.372       .  S
C564        C565   1.397       .  A
C565        C566   1.390       .  A
C565        H569   1.082       .  S
C566        O570   1.369       .  S
O568        H572   0.992       .  S
O570        H571   0.993       .  S
C573        C574   1.402       .  A
C573        C578   1.401       .  A
C574        C575   1.398       .  A
C574        H579   1.084       .  S
C575        C576   1.424       .  A
C575        O580   1.373       .  S
C576        C577   1.424       .  A
C577        C578   1.400       .  A
C577        H581   1.080       .  S
C578        O582   1.371       .  S
O580        H584   0.992       .  S
O582        H583   0.992       .  S
C585        C586   1.411       .  A
C585        C590   1.423       .  A
C586        C587   1.399       .  A
C586        H591   1.084       .  S
C587        C588   1.413       .  A
C587        O592   1.371   1_545  S
C588        C589   1.396       .  A
C589        C590   1.391       .  A
C589        H593   1.064       .  S
C590        O594   1.370       .  S
O592        H596   0.990       .  S
O594        H595   0.992       .  S
C597        C598   1.390       .  A
C597        C602   1.404       .  A
C598        C599   1.394       .  A
C598        H603   1.079       .  S
C599        C600   1.428       .  A
C599        O604   1.367       .  S
C600        C601   1.419       .  A
C601        C602   1.403       .  A
C601        H605   1.073       .  S
C602        O606   1.377       .  S
O604        H608   0.993       .  S
O606        H607   0.992       .  S
C609        C610   1.422       .  A
C609        C614   1.417       .  A
C610        C611   1.408       .  A
C610        H615   1.080       .  S
C611        C612   1.402       .  A
C611        O616   1.372       .  S
C612        C613   1.403       .  A
C613        C614   1.397       .  A
C613        H617   1.078       .  S
C614        O618   1.377       .  S
O616        H620   0.992       .  S
O618        H619   0.992       .  S
C621        C622   1.410       .  A
C621        C626   1.422       .  A
C622        C623   1.391       .  A
C622        H627   1.074       .  S
C623        C624   1.401       .  A
C623        O628   1.376       .  S
C624        C625   1.400       .  A
C625        C626   1.396       .  A
C625        H629   1.080       .  S
C626        O630   1.372       .  S
O628        H632   0.993       .  S
O630        H631   0.992       .  S
C633        C634   1.408       .  A
C633        C638   1.423       .  A
C634        C635   1.388       .  A
C634        H639   1.066       .  S
C635        C636   1.403       .  A
C635        O640   1.372       .  S
C636        C637   1.404       .  A
C637        C638   1.407       .  A
C637        H641   1.084       .  S
C638        O642   1.376       .  S
O640        H644   0.993   1_554  S
O642        H643   0.992       .  S
C645        C646   1.418       .  A
C645        C650   1.420       .  A
C646        C647   1.408       .  A
C646        H651   1.080       .  S
C647        C648   1.404       .  A
C647        O652   1.372       .  S
C648        C649   1.399       .  A
C649        C650   1.395       .  A
C649        H653   1.079       .  S
C650        O654   1.377       .  S
O652        H656   0.992       .  S
O654        H655   0.992       .  S
C657        C658   1.424       .  A
C657        C662   1.421       .  A
C658        C659   1.399       .  A
C658        H663   1.079       .  S
C659        C660   1.400       .  A
C659        O664   1.372       .  S
C660        C661   1.402       .  A
C661        C662   1.399       .  A
C661        H665   1.084       .  S
C662        O666   1.375       .  S
O664        H668   0.991       .  S
O666        H667   0.992       .  S
C669        C670   1.419       .  A
C669        C674   1.428       .  A
C670        C671   1.407       .  A
C670        H675   1.079       .  S
C671        C672   1.403       .  A
C671        O676   1.372       .  S
C672        C673   1.393       .  A
C673        C674   1.391       .  A
C673        H677   1.085       .  S
C674        O678   1.375       .  S
O676        H680   0.991       .  S
O678        H679   0.993       .  S
C681        C682   1.416       .  A
C681        C686   1.427       .  A
C682        C683   1.397       .  A
C682        H687   1.077       .  S
C683        C684   1.409       .  A
C683        O688   1.380       .  S
C684        C685   1.401       .  A
C685        C686   1.406       .  A
C685        H689   1.084       .  S
C686        O690   1.375       .  S
O688        H692   0.993       .  S
O690        H691   0.993       .  S
C693        C694   1.419       .  A
C693        C698   1.423       .  A
C694        C695   1.400       .  A
C694        H699   1.078       .  S
C695        C696   1.402       .  A
C695        O700   1.372       .  S
C696        C697   1.394       .  A
C697        C698   1.389       .  A
C697        H701   1.083       .  S
C698        O702   1.373       .  S
O700        H704   0.992       .  S
O702        H703   0.993       .  S
C705        C706   1.418       .  A
C705        C710   1.417       .  A
C706        C707   1.398       .  A
C706        H711   1.080       .  S
C707        C708   1.404       .  A
C707        O712   1.372       .  S
C708        C709   1.402       .  A
C709        C710   1.391       .  A
C709        H713   1.083       .  S
C710        O714   1.374       .  S
O712        H716   0.992       .  S
O714        H715   0.992       .  S
C717        C718   1.412       .  A
C717        C722   1.410       .  A
C718        C719   1.409       .  A
C718        H723   1.069       .  S
C719        C720   1.420       .  A
C719        O724   1.372       .  S
C720        C721   1.408       .  A
C721        C722   1.390       .  A
C721        H725   1.080       .  S
C722        O726   1.372       .  S
O724        H728   0.992       .  S
O726        H727   0.990       .  S
C729        C730   1.400       .  A
C729        C734   1.406       .  A
C730        C731   1.400       .  A
C730        H735   1.084       .  S
C731        C732   1.423       .  A
C731        O736   1.366       .  S
C732        C733   1.425       .  A
C733        C734   1.411       .  A
C733        H737   1.080       .  S
C734        O738   1.371       .  S
O736        H740   0.992       .  S
O738        H739   0.992       .  S
C741        C742   1.399       .  A
C741        C746   1.418       .  A
C742        C743   1.386       .  A
C742        H747   1.074       .  S
C743        C744   1.422       .  A
C743        O748   1.372       .  S
C744        C745   1.413       .  A
C745        C746   1.409       .  A
C745        H749   1.080       .  S
C746        O750   1.363       .  S
O748        H752   0.993       .  S
O750        H751   0.993       .  S
C753        C754   1.419       .  A
C753        C758   1.422       .  A
C754        C755   1.398       .  A
C754        H759   1.070       .  S
C755        C756   1.402       .  A
C755        O760   1.372       .  S
C756        C757   1.405       .  A
C757        C758   1.410       .  A
C757        H761   1.083       .  S
C758        O762   1.376       .  S
O760        H764   0.992       .  S
O762        H763   0.992       .  S
C765        C766   1.397       .  A
C765        C770   1.407       .  A
C766        C767   1.399       .  A
C766        H771   1.083       .  S
C767        C768   1.428       .  A
C767        O772   1.370       .  S
C768        C769   1.408       .  A
C769        C770   1.388       .  A
C769        H773   1.082       .  S
C770        O774   1.374       .  S
O772        H776   0.991       .  S
O774        H775   0.993       .  S
C777        C778   1.392       .  A
C777        C782   1.401       .  A
C778        C779   1.398       .  A
C778        H783   1.084       .  S
C779        C780   1.427       .  A
C779        O784   1.374       .  S
C780        C781   1.412       .  A
C781        C782   1.390       .  A
C781        H785   1.083       .  S
C782        O786   1.373       .  S
O784        H788   0.992       .  S
O786        H787   0.992       .  S
C789        C790   1.402       .  A
C789        C794   1.405       .  A
C790        C791   1.404       .  A
C790        H795   1.081       .  S
C791        C792   1.428       .  A
C791        O796   1.374       .  S
C792        C793   1.414       .  A
C793        C794   1.396       .  A
C793        H797   1.080       .  S
C794        O798   1.373       .  S
O796        H800   0.992       .  S
O798        H799   0.992   1_655  S
C801        C802   1.398       .  A
C801        C806   1.412       .  A
C802        C803   1.385       .  A
C802        H807   1.083   1_455  S
C803        C804   1.427       .  A
C803        O808   1.370       .  S
C804        C805   1.419       .  A
C805        C806   1.411       .  A
C805        H809   1.083       .  S
C806        O810   1.372       .  S
O808        H812   0.993       .  S
O810        H811   0.992       .  S
C813        C814   1.397       .  A
C813        C818   1.400       .  A
C814        C815   1.405       .  A
C814        H819   1.082       .  S
C815        C816   1.424       .  A
C815        O820   1.376       .  S
C816        C817   1.421       .  A
C817        C818   1.401       .  A
C817        H821   1.070       .  S
C818        O822   1.375       .  S
O820        H824   0.992       .  S
O822        H823   0.992       .  S
C825        C826   1.407       .  A
C825        C830   1.402       .  A
C826        C827   1.419       .  A
C826        H831   1.082       .  S
C827        C828   1.433       .  A
C827        O832   1.370       .  S
C828        C829   1.404       .  A
C829        C830   1.376       .  A
C829        H833   1.073       .  S
C830        O834   1.368       .  S
O832        H836   0.991       .  S
O834        H835   0.992       .  S
C837        C838   1.414       .  A
C837        C842   1.427       .  A
C838        C839   1.395       .  A
C838        H843   1.080       .  S
C839        C840   1.407       .  A
C839        O844   1.374       .  S
C840        C841   1.399       .  A
C841        C842   1.398       .  A
C841        H845   1.075       .  S
C842        O846   1.371       .  S
O844        H848   0.992   1_554  S
O846        H847   0.991       .  S
C849        C850   1.409       .  A
C849        C854   1.434       .  A
C850        C851   1.395       .  A
C850        H855   1.083       .  S
C851        C852   1.413       .  A
C851        O856   1.372       .  S
C852        C853   1.397       .  A
C853        C854   1.402       .  A
C853        H857   1.083       .  S
C854        O858   1.370       .  S
O856        H860   0.992       .  S
O858        H859   0.992       .  S
C861        C862   1.412       .  A
C861        C866   1.406       .  A
C862        C863   1.419       .  A
C862        H867   1.071       .  S
C863        C864   1.427       .  A
C863        O868   1.373       .  S
C864        C865   1.394       .  A
C865        C866   1.381       .  A
C865        H869   1.077       .  S
C866        O870   1.372   1_554  S
O868        H872   0.992       .  S
O870        H871   0.985       .  S
C873        C874   1.414       .  A
C873        C878   1.426       .  A
C874        C875   1.395       .  A
C874        H879   1.076       .  S
C875        C876   1.406       .  A
C875        O880   1.381       .  S
C876        C877   1.402       .  A
C877        C878   1.402       .  A
C877        H881   1.084       .  S
C878        O882   1.367       .  S
O880        H884   0.993       .  S
O882        H883   0.992       .  S
C885        C886   1.409       .  A
C885        C890   1.407       .  A
C886        C887   1.403       .  A
C886        H891   1.082       .  S
C887        C888   1.420       .  A
C887        O892   1.371       .  S
C888        C889   1.416       .  A
C889        C890   1.397       .  A
C889        H893   1.077       .  S
C890        O894   1.377       .  S
O892        H896   0.991       .  S
O894        H895   0.992   1_554  S
C897        C898   1.403       .  A
C897        C902   1.425       .  A
C898        C899   1.399       .  A
C898        H903   1.083       .  S
C899        C900   1.420       .  A
C899        O904   1.361       .  S
C900        C901   1.410       .  A
C901        C902   1.398       .  A
C901        H905   1.083   1_556  S
C902        O906   1.369       .  S
O904        H908   0.994       .  S
O906        H907   0.990       .  S
C909        C910   1.403       .  A
C909        C914   1.409       .  A
C910        C911   1.400       .  A
C910        H915   1.082       .  S
C911        C912   1.421       .  A
C911        O916   1.372       .  S
C912        C913   1.413       .  A
C913        C914   1.405       .  A
C913        H917   1.080       .  S
C914        O918   1.373       .  S
O916        H920   0.992       .  S
O918        H919   0.992       .  S
C921        C922   1.414       .  A
C921        C926   1.427       .  A
C922        C923   1.402       .  A
C922        H927   1.081       .  S
C923        C924   1.407       .  A
C923        O928   1.375       .  S
C924        C925   1.394       .  A
C925        C926   1.392       .  A
C925        H929   1.082       .  S
C926        O930   1.376       .  S
O928        H932   0.993       .  S
O930        H931   0.993       .  S
C933        C934   1.400       .  A
C933        C938   1.401       .  A
C934        C935   1.401       .  A
C934        H939   1.083       .  S
C935        C936   1.426       .  A
C935        O940   1.376       .  S
C936        C937   1.415       .  A
C937        C938   1.388       .  A
C937        H941   1.076       .  S
C938        O942   1.377       .  S
O940        H944   0.992       .  S
O942        H943   0.992       .  S
C945        C946   1.408       .  A
C945        C950   1.401       .  A
C946        C947   1.401       .  A
C946        H951   1.078       .  S
C947        C948   1.413       .  A
C947        O952   1.372       .  S
C948        C949   1.422       .  A
C949        C950   1.394       .  A
C949        H953   1.076       .  S
C950        O954   1.376       .  S
O952        H956   0.992       .  S
O954        H955   0.992       .  S
C957        C958   1.390       .  A
C957        C962   1.403       .  A
C958        C959   1.394       .  A
C958        H963   1.083       .  S
C959        C960   1.439       .  A
C959        O964   1.369       .  S
C960        C961   1.415       .  A
C961        C962   1.390       .  A
C961        H965   1.080       .  S
C962        O966   1.372       .  S
O964        H968   0.992       .  S
O966        H967   0.992       .  S
C969        C970   1.406       .  A
C969        C974   1.403       .  A
C970        C971   1.396       .  A
C970        H975   1.084       .  S
C971        C972   1.417       .  A
C971        O976   1.374       .  S
C972        C973   1.415       .  A
C973        C974   1.390       .  A
C973        H977   1.080       .  S
C974        O978   1.368       .  S
O976        H980   0.992       .  S
O978        H979   0.993       .  S
C981        C982   1.395       .  A
C981        C986   1.412       .  A
C982        C983   1.383       .  A
C982        H987   1.085       .  S
C983        C984   1.429       .  A
C983        O988   1.367       .  S
C984        C985   1.420       .  A
C985        C986   1.412       .  A
C985        H989   1.081       .  S
C986        O990   1.370       .  S
O988        H992   0.993       .  S
O990        H991   0.992       .  S
C993        C994   1.402       .  A
C993        C998   1.402       .  A
C994        C995   1.391       .  A
C994        H999   1.083       .  S
C995        C996   1.421       .  A
C995       O1000   1.372       .  S
C996        C997   1.423       .  A
C997        C998   1.399       .  A
C997       H1001   1.079       .  S
C998       O1002   1.371       .  S
O1000      H1004   0.992       .  S
O1002      H1003   0.992       .  S
C1005      C1006   1.398       .  A
C1005      C1010   1.400       .  A
C1006      C1007   1.392       .  A
C1006      H1011   1.085       .  S
C1007      C1008   1.424       .  A
C1007      O1012   1.370       .  S
C1008      C1009   1.425       .  A
C1009      C1010   1.392       .  A
C1009      H1013   1.078       .  S
C1010      O1014   1.373       .  S
O1012      H1016   0.993       .  S
O1014      H1015   0.992       .  S
C1017      C1018   1.420       .  A
C1017      C1022   1.423       .  A
C1018      C1019   1.393       .  A
C1018      H1023   1.079       .  S
C1019      C1020   1.397       .  A
C1019      O1024   1.372       .  S
C1020      C1021   1.392       .  A
C1021      C1022   1.380       .  A
C1021      H1025   1.085       .  S
C1022      O1026   1.373       .  S
O1024      H1028   0.992       .  S
O1026      H1027   0.993       .  S
C1029      C1030   1.413       .  A
C1029      C1034   1.435       .  A
C1030      C1031   1.383       .  A
C1030      H1035   1.068       .  S
C1031      C1032   1.395       .  A
C1031      O1036   1.377       .  S
C1032      C1033   1.400       .  A
C1033      C1034   1.411       .  A
C1033      H1037   1.083       .  S
C1034      O1038   1.369       .  S
O1036      H1040   0.993       .  S
O1038      H1039   0.991       .  S
C1041      C1042   1.413       .  A
C1041      C1046   1.419       .  A
C1042      C1043   1.404       .  A
C1042      H1047   1.083       .  S
C1043      C1044   1.422       .  A
C1043      O1048   1.361       .  S
C1044      C1045   1.399       .  A
C1045      C1046   1.377       .  A
C1045      H1049   1.082       .  S
C1046      O1050   1.368       .  S
O1048      H1052   0.993       .  S
O1050      H1051   0.990       .  S
C1053      C1054   1.396       .  A
C1053      C1058   1.399       .  A
C1054      C1055   1.399       .  A
C1054      H1059   1.077       .  S
C1055      C1056   1.423       .  A
C1055      O1060   1.377       .  S
C1056      C1057   1.420       .  A
C1057      C1058   1.395       .  A
C1057      H1061   1.073       .  S
C1058      O1062   1.374       .  S
O1060      H1064   0.992       .  S
O1062      H1063   0.992       .  S
C1065      C1066   1.408       .  A
C1065      C1070   1.407       .  A
C1066      C1067   1.410       .  A
C1066      H1071   1.084       .  S
C1067      C1068   1.418       .  A
C1067      O1072   1.377       .  S
C1068      C1069   1.419       .  A
C1069      C1070   1.400       .  A
C1069      H1073   1.079       .  S
C1070      O1074   1.371       .  S
O1072      H1076   0.990       .  S
O1074      H1075   0.992       .  S
C1077      C1078   1.422       .  A
C1077      C1082   1.422       .  A
C1078      C1079   1.403       .  A
C1078      H1083   1.077       .  S
C1079      C1080   1.401       .  A
C1079      O1084   1.372       .  S
C1080      C1081   1.400       .  A
C1081      C1082   1.402       .  A
C1081      H1085   1.084       .  S
C1082      O1086   1.372       .  S
O1084      H1088   0.992       .  S
O1086      H1087   0.992       .  S
C1089      C1090   1.399       .  A
C1089      C1094   1.405       .  A
C1090      C1091   1.391       .  A
C1090      H1095   1.083       .  S
C1091      C1092   1.422       .  A
C1091      O1096   1.371       .  S
C1092      C1093   1.419       .  A
C1093      C1094   1.401       .  A
C1093      H1097   1.080       .  S
C1094      O1098   1.371       .  S
O1096      H1100   0.992       .  S
O1098      H1099   0.991       .  S
C1101      C1102   1.401       .  A
C1101      C1106   1.403       .  A
C1102      C1103   1.405       .  A
C1102      H1107   1.083       .  S
C1103      C1104   1.429       .  A
C1103      O1108   1.370       .  S
C1104      C1105   1.409       .  A
C1105      C1106   1.384       .  A
C1105      H1109   1.073       .  S
C1106      O1110   1.370       .  S
O1108      H1112   0.992       .  S
O1110      H1111   0.992       .  S
C1113      C1114   1.401       .  A
C1113      C1118   1.403       .  A
C1114      C1115   1.413       .  A
C1114      H1119   1.084       .  S
C1115      C1116   1.429       .  A
C1115      O1120   1.374       .  S
C1116      C1117   1.412       .  A
C1117      C1118   1.392       .  A
C1117      H1121   1.083       .  S
C1118      O1122   1.373       .  S
O1120      H1124   0.992       .  S
O1122      H1123   0.992   1_556  S
C1125      C1126   1.418       .  A
C1125      C1130   1.416       .  A
C1126      C1127   1.397       .  A
C1126      H1131   1.080       .  S
C1127      C1128   1.402       .  A
C1127      O1132   1.367       .  S
C1128      C1129   1.407       .  A
C1129      C1130   1.399       .  A
C1129      H1133   1.084       .  S
C1130      O1134   1.373       .  S
O1132      H1136   0.992       .  S
O1134      H1135   0.992       .  S
C1137      C1138   1.423       .  A
C1137      C1142   1.421       .  A
C1138      C1139   1.401       .  A
C1138      H1143   1.079       .  S
C1139      C1140   1.402       .  A
C1139      O1144   1.372       .  S
C1140      C1141   1.401       .  A
C1141      C1142   1.396       .  A
C1141      H1145   1.084       .  S
C1142      O1146   1.373       .  S
O1144      H1148   0.992       .  S
O1146      H1147   0.992       .  S
C1149      C1150   1.412       .  A
C1149      C1154   1.431       .  A
C1150      C1151   1.389       .  A
C1150      H1155   1.080       .  S
C1151      C1152   1.406       .  A
C1151      O1156   1.372       .  S
C1152      C1153   1.398       .  A
C1153      C1154   1.400       .  A
C1153      H1157   1.083       .  S
C1154      O1158   1.370       .  S
O1156      H1160   0.992       .  S
O1158      H1159   0.992       .  S
C1161      C1162   1.419       .  A
C1161      C1166   1.431       .  A
C1162      C1163   1.404       .  A
C1162      H1167   1.082       .  S
C1163      C1164   1.406       .  A
C1163      O1168   1.371       .  S
C1164      C1165   1.400       .  A
C1165      C1166   1.397       .  A
C1165      H1169   1.084       .  S
C1166      O1170   1.370       .  S
O1168      H1172   0.992       .  S
O1170      H1171   0.992       .  S
C1173      C1174   1.407       .  A
C1173      C1178   1.432       .  A
C1174      C1175   1.389       .  A
C1174      H1179   1.084       .  S
C1175      C1176   1.410       .  A
C1175      O1180   1.366       .  S
C1176      C1177   1.400       .  A
C1177      C1178   1.403       .  A
C1177      H1181   1.083       .  S
C1178      O1182   1.368       .  S
O1180      H1184   0.992       .  S
O1182      H1183   0.992       .  S
C1185      C1186   1.412       .  A
C1185      C1190   1.422       .  A
C1186      C1187   1.394       .  A
C1186      H1191   1.080       .  S
C1187      C1188   1.410       .  A
C1187      O1192   1.362       .  S
C1188      C1189   1.414       .  A
C1189      C1190   1.412       .  A
C1189      H1193   1.084       .  S
C1190      O1194   1.371       .  S
O1192      H1196   0.993       .  S
O1194      H1195   0.991       .  S
C1197      C1198   1.417       .  A
C1197      C1202   1.413       .  A
C1198      C1199   1.401       .  A
C1198      H1203   1.078       .  S
C1199      C1200   1.406       .  A
C1199      O1204   1.367       .  S
C1200      C1201   1.406       .  A
C1201      C1202   1.396       .  A
C1201      H1205   1.074       .  S
C1202      O1206   1.373       .  S
O1204      H1208   0.993       .  S
O1206      H1207   0.992       .  S
C1209      C1210   1.413       .  A
C1209      C1214   1.424       .  A
C1210      C1211   1.397       .  A
C1210      H1215   1.082       .  S
C1211      C1212   1.409       .  A
C1211      O1216   1.366       .  S
C1212      C1213   1.396       .  A
C1213      C1214   1.390       .  A
C1213      H1217   1.074       .  S
C1214      O1218   1.371       .  S
O1216      H1220   0.992       .  S
O1218      H1219   0.992       .  S
C1221      C1222   1.424       .  A
C1221      C1226   1.422       .  A
C1222      C1223   1.401       .  A
C1222      H1227   1.077       .  S
C1223      C1224   1.400       .  A
C1223      O1228   1.372       .  S
C1224      C1225   1.397       .  A
C1225      C1226   1.391       .  A
C1225      H1229   1.074       .  S
C1226      O1230   1.377       .  S
O1228      H1232   0.992       .  S
O1230      H1231   0.993       .  S
C1233      C1234   1.408       .  A
C1233      C1238   1.432       .  A
C1234      C1235   1.397       .  A
C1234      H1239   1.083       .  S
C1235      C1236   1.414       .  A
C1235      O1240   1.374       .  S
C1236      C1237   1.399       .  A
C1237      C1238   1.406       .  A
C1237      H1241   1.082       .  S
C1238      O1242   1.373       .  S
O1240      H1244   0.992       .  S
O1242      H1243   0.992       .  S
C1245      C1246   1.401       .  A
C1245      C1250   1.402       .  A
C1246      C1247   1.397       .  A
C1246      H1251   1.084       .  S
C1247      C1248   1.420       .  A
C1247      O1252   1.372       .  S
C1248      C1249   1.423       .  A
C1249      C1250   1.400       .  A
C1249      H1253   1.079       .  S
C1250      O1254   1.372       .  S
O1252      H1256   0.993       .  S
O1254      H1255   0.992       .  S
C1257      C1258   1.418       .  A
C1257      C1262   1.429       .  A
C1258      C1259   1.397       .  A
C1258      H1263   1.083       .  S
C1259      C1260   1.405       .  A
C1259      O1264   1.371       .  S
C1260      C1261   1.397       .  A
C1261      C1262   1.402       .  A
C1261      H1265   1.072       .  S
C1262      O1266   1.371       .  S
O1264      H1268   0.992       .  S
O1266      H1267   0.993       .  S
C1269      C1270   1.427       .  A
C1269      C1274   1.420       .  A
C1270      C1271   1.399       .  A
C1270      H1275   1.080       .  S
C1271      C1272   1.399       .  A
C1271      O1276   1.372       .  S
C1272      C1273   1.401       .  A
C1273      C1274   1.389       .  A
C1273      H1277   1.084       .  S
C1274      O1278   1.370       .  S
O1276      H1280   0.992       .  S
O1278      H1279   0.993       .  S
C1281      C1282   1.411       .  A
C1281      C1286   1.429       .  A
C1282      C1283   1.387       .  A
C1282      H1287   1.081       .  S
C1283      C1284   1.405       .  A
C1283      O1288   1.372       .  S
C1284      C1285   1.398       .  A
C1285      C1286   1.403       .  A
C1285      H1289   1.082       .  S
C1286      O1290   1.376       .  S
O1288      H1292   0.992       .  S
O1290      H1291   0.993       .  S
C1293      C1294   1.417       .  A
C1293      C1298   1.426       .  A
C1294      C1295   1.405       .  A
C1294      H1299   1.083       .  S
C1295      C1296   1.404       .  A
C1295      O1300   1.377       .  S
C1296      C1297   1.394       .  A
C1297      C1298   1.393       .  A
C1297      H1301   1.084       .  S
C1298      O1302   1.366       .  S
O1300      H1304   0.992       .  S
O1302      H1303   0.992       .  S
C1305      C1306   1.415       .  A
C1305      C1310   1.424       .  A
C1306      C1307   1.391       .  A
C1306      H1311   1.084       .  S
C1307      C1308   1.401       .  A
C1307      O1312   1.374       .  S
C1308      C1309   1.400       .  A
C1309      C1310   1.405       .  A
C1309      H1313   1.079       .  S
C1310      O1314   1.372       .  S
O1312      H1316   0.992       .  S
O1314      H1315   0.992       .  S
C1317      C1318   1.414       .  A
C1317      C1322   1.425       .  A
C1318      C1319   1.406       .  A
C1318      H1323   1.084       .  S
C1319      C1320   1.419       .  A
C1319      O1324   1.362       .  S
C1320      C1321   1.404       .  A
C1321      C1322   1.388       .  A
C1321      H1325   1.083       .  S
C1322      O1326   1.370       .  S
O1324      H1328   0.992       .  S
O1326      H1327   0.993       .  S
C1329      C1330   1.423       .  A
C1329      C1334   1.424       .  A
C1330      C1331   1.401       .  A
C1330      H1335   1.078       .  S
C1331      C1332   1.400       .  A
C1331      O1336   1.378       .  S
C1332      C1333   1.393       .  A
C1333      C1334   1.389       .  A
C1333      H1337   1.082       .  S
C1334      O1338   1.368       .  S
O1336      H1340   0.992       .  S
O1338      H1339   0.992       .  S
C1341      C1342   1.402       .  A
C1341      C1346   1.424       .  A
C1342      C1343   1.388       .  A
C1342      H1347   1.076       .  S
C1343      C1344   1.414       .  A
C1343      O1348   1.374       .  S
C1344      C1345   1.405       .  A
C1345      C1346   1.403       .  A
C1345      H1349   1.079       .  S
C1346      O1350   1.371       .  S
O1348      H1352   0.992       .  S
O1350      H1351   0.991       .  S
C1353      C1354   1.410       .  A
C1353      C1358   1.419       .  A
C1354      C1355   1.398       .  A
C1354      H1359   1.080       .  S
C1355      C1356   1.419       .  A
C1355      O1360   1.372       .  S
C1356      C1357   1.403       .  A
C1357      C1358   1.401       .  A
C1357      H1361   1.082       .  S
C1358      O1362   1.359       .  S
O1360      H1364   0.992       .  S
O1362      H1363   0.994       .  S
C1365      C1366   1.414       .  A
C1365      C1370   1.422       .  A
C1366      C1367   1.401       .  A
C1366      H1371   1.080       .  S
C1367      C1368   1.405       .  A
C1367      O1372   1.379       .  S
C1368      C1369   1.402       .  A
C1369      C1370   1.405       .  A
C1369      H1373   1.084       .  S
C1370      O1374   1.374       .  S
O1372      H1376   0.992       .  S
O1374      H1375   0.992       .  S
C1377      C1378   1.420       .  A
C1377      C1382   1.422       .  A
C1378      C1379   1.397       .  A
C1378      H1383   1.078       .  S
C1379      C1380   1.401       .  A
C1379      O1384   1.372       .  S
C1380      C1381   1.401       .  A
C1381      C1382   1.397       .  A
C1381      H1385   1.084       .  S
C1382      O1386   1.373       .  S
O1384      H1388   0.992       .  S
O1386      H1387   0.992       .  S
C1389      C1390   1.408       .  A
C1389      C1394   1.432       .  A
C1390      C1391   1.389       .  A
C1390      H1395   1.077       .  S
C1391      C1392   1.410       .  A
C1391      O1396   1.374       .  S
C1392      C1393   1.398       .  A
C1393      C1394   1.404       .  A
C1393      H1397   1.082       .  S
C1394      O1398   1.373       .  S
O1396      H1400   0.993       .  S
O1398      H1399   0.992       .  S
C1401      C1402   1.416       .  A
C1401      C1406   1.432       .  A
C1402      C1403   1.398       .  A
C1402      H1407   1.083       .  S
C1403      C1404   1.400       .  A
C1403      O1408   1.370       .  S
C1404      C1405   1.399       .  A
C1405      C1406   1.399       .  A
C1405      H1409   1.084       .  S
C1406      O1410   1.367       .  S
O1408      H1412   0.992       .  S
O1410      H1411   0.992       .  S
