geometry optimzed in LAMMPS
_audit_creation_date              2020-11-30 
_audit_creation_method            'lammps2cif' 
_symmetry_space_group_name_H-M    'P1' 
_symmetry_Int_Tables_number       1 
_symmetry_cell_setting            triclinic 
loop_ 
_symmetry_equiv_pos_as_xyz 
  x,y,z 
_cell_length_a                    39.49219314028478 
_cell_length_b                    39.268297596671246 
_cell_length_c                    26.925796768642787 
_cell_angle_alpha                 89.7868439238653 
_cell_angle_beta                  91.1824196976312 
_cell_angle_gamma                 90.08143862443494 
loop_ 
_atom_site_label 
_atom_site_type_symbol 
_atom_site_fract_x 
_atom_site_fract_y 
_atom_site_fract_z 
_atom_site_charge 
N1          N  0.64350757  0.44789121  0.27829383    -0.27130
N2          N  0.66716548  0.42997177  0.25651683    -0.34980
C3          C  0.65471292  0.39868806  0.24626319     0.01210
C4          C  0.62158586  0.39680680  0.26302056     0.07240
C5          C  0.61578097  0.42865303  0.28330091    -0.05860
H6          H  0.66826967  0.37953102  0.22593513     0.07910
H7          H  0.59253702  0.43803501  0.29871055     0.09110
Cu8        Cu  0.71413849  0.45137028  0.24137302     0.44170
Cu9        Cu  0.64609136  0.49973058  0.28974114     0.41990
Cu10       Cu  0.71585202  0.54620100  0.24468372     0.43880
N11         N  0.75773233  0.48134349  0.23981192    -0.34510
N12         N  0.75817596  0.51508045  0.24095111    -0.28770
C13         C  0.79050036  0.52585836  0.24263507    -0.04870
C14         C  0.81139480  0.49770106  0.24279533     0.07350
C15         C  0.78986239  0.46991311  0.24085761     0.01150
H16         H  0.79817540  0.55228101  0.24483436     0.08800
H17         H  0.79697710  0.44331395  0.24134998     0.07880
N18         N  0.66946398  0.56898202  0.25718453    -0.35960
N19         N  0.64414530  0.55138660  0.27574531    -0.28140
C20         C  0.61638149  0.57096047  0.27612672    -0.03380
C21         C  0.62437040  0.60244743  0.25640476     0.05230
C22         C  0.65844835  0.60055818  0.24539061     0.03320
H23         H  0.59165924  0.56223517  0.28726268     0.08430
H24         H  0.67348900  0.61988841  0.22743799     0.07260
N25         N  0.46703936  0.72259718  0.24377060    -0.27130
N26         N  0.48605316  0.75006934  0.24026184    -0.34980
C27         C  0.51882223  0.74032951  0.23846833     0.01210
C28         C  0.52013016  0.70488993  0.24174816     0.07240
C29         C  0.48665298  0.69490651  0.24510295    -0.05860
H30         H  0.53987812  0.75768524  0.23445119     0.07910
H31         H  0.47699358  0.66922617  0.24843275     0.09110
Cu32       Cu  0.46346653  0.79805449  0.24008903     0.44170
Cu33       Cu  0.41524588  0.72295564  0.24516427     0.41990
Cu34       Cu  0.36741444  0.79795728  0.25127535     0.43880
N35         N  0.43225189  0.84078304  0.24503113    -0.34510
N36         N  0.39878124  0.84072868  0.24873441    -0.28770
C37         C  0.38790946  0.87312237  0.25135027    -0.04870
C38         C  0.41565522  0.89450354  0.24946132     0.07350
C39         C  0.44328960  0.87322351  0.24546160     0.01150
H40         H  0.36167677  0.88052212  0.25470602     0.08800
H41         H  0.46957751  0.88073570  0.24306310     0.07880
N42         N  0.34473464  0.75003698  0.25293683    -0.35960
N43         N  0.36356355  0.72249745  0.24933950    -0.28140
C44         C  0.34396439  0.69477716  0.25146819    -0.03380
C45         C  0.31088746  0.70493335  0.25805988     0.05230
C46         C  0.31212211  0.74036164  0.25791195     0.03320
H47         H  0.35334599  0.66901234  0.24857444     0.08430
H48         H  0.29108284  0.75767857  0.26191347     0.07260
N49         N  0.36328998  0.27239590  0.22494631    -0.27130
N50         N  0.34632089  0.24717717  0.24542822    -0.34980
C51         C  0.31537995  0.25852450  0.25774814     0.01210
C52         C  0.31329127  0.29275427  0.24517864     0.07240
C53         C  0.34396871  0.30043331  0.22393103    -0.05860
H54         H  0.29646759  0.24346055  0.27634752     0.07910
H55         H  0.35217344  0.32499931  0.21035070     0.09110
Cu56       Cu  0.36885185  0.20015431  0.25816049     0.44170
Cu57       Cu  0.41383347  0.26972067  0.20729325     0.41990
Cu58       Cu  0.46308278  0.20121206  0.25667349     0.43880
N59         N  0.39960334  0.15729048  0.26110829    -0.34510
N60         N  0.43315691  0.15753248  0.26079209    -0.28770
C61         C  0.44430715  0.12516544  0.25976389    -0.04870
C62         C  0.41652860  0.10367361  0.25922155     0.07350
C63         C  0.38866905  0.12485083  0.26027655     0.01150
H64         H  0.47067363  0.11787291  0.25822130     0.08800
H65         H  0.36230498  0.11729897  0.25932328     0.07880
N66         N  0.48407801  0.24829036  0.23886565    -0.35960
N67         N  0.46575054  0.27212034  0.21648741    -0.28140
C68         C  0.48458937  0.30023099  0.21103693    -0.03380
C69         C  0.51622758  0.29457338  0.23256045     0.05230
C70         C  0.51523647  0.26097854  0.24900028     0.03320
H71         H  0.47501525  0.32378487  0.19533691     0.08430
H72         H  0.53494546  0.24749929  0.26943991     0.07260
N73         N  0.18941401  0.44728260  0.23189017    -0.27130
N74         N  0.16383572  0.42868088  0.24743847    -0.34980
C75         C  0.17483666  0.39651466  0.25534654     0.01210
C76         C  0.20900393  0.39509658  0.24389954     0.07240
C77         C  0.21712652  0.42783661  0.22929417    -0.05860
H78         H  0.15947207  0.37609229  0.26986816     0.07910
H79         H  0.24177185  0.43720019  0.21885944     0.09110
Cu80       Cu  0.11638579  0.45044196  0.25793670     0.44170
Cu81       Cu  0.18767337  0.49918072  0.22144101     0.41990
Cu82       Cu  0.11526722  0.54588432  0.25484950     0.43880
N83         N  0.07307775  0.48083249  0.25962002    -0.34510
N84         N  0.07283971  0.51459524  0.25870267    -0.28770
C85         C  0.04055684  0.52547299  0.25783341    -0.04870
C86         C  0.01946740  0.49739082  0.25804569     0.07350
C87         C  0.04086379  0.46953056  0.25927726     0.01150
H88         H  0.03302202  0.55193761  0.25605226     0.08800
H89         H  0.03358156  0.44295869  0.25895069     0.07880
N90         N  0.16165572  0.56925500  0.24299819    -0.35960
N91         N  0.18797424  0.55130588  0.22888742    -0.28140
C92         C  0.21521353  0.57156262  0.22690054    -0.03380
C93         C  0.20582261  0.60409870  0.24019824     0.05230
C94         C  0.17156376  0.60179827  0.25034341     0.03320
H95         H  0.24049782  0.56282795  0.21892336     0.08430
H96         H  0.15558248  0.62174026  0.26450258     0.07260
O97         O  0.94309219  0.44700714  0.00330101    -0.72780
O98         O  0.94253658  0.54917937  0.99957147    -0.73760
O99         O  0.94382498  0.49891657  0.07591410    -0.62380
O100        O  0.94227415  0.49711300  0.42691943    -0.70790
O101        O  0.88598004  0.49688035  0.42604720    -0.70340
O102        O  0.88752816  0.49832731  0.07543499    -0.61600
O103        O  0.88628837  0.54868766  0.99951453    -0.74110
O104        O  0.88682900  0.44669729  0.00262285    -0.72880
Cu105      Cu  0.94491405  0.49808036  0.00139267     1.04560
Cu106      Cu  0.88468127  0.49765103  0.00083066     1.04330
C107        C  0.91501634  0.43081787  0.00401717     0.93420
C108        C  0.91427381  0.56499695  0.99912807     0.92560
C109        C  0.91592576  0.49861332  0.09899744     0.84700
C110        C  0.91399000  0.49682646  0.40313964     0.90970
O111        O  0.86462893  0.52577613  0.24779826    -0.72780
O112        O  0.96629413  0.52564038  0.25449114    -0.73760
O113        O  0.91643896  0.52641392  0.17673730    -0.62380
O114        O  0.91428819  0.52530511  0.32569647    -0.70790
O115        O  0.91405013  0.46870158  0.32546573    -0.70340
O116        O  0.91633743  0.46980440  0.17625891    -0.61600
O117        O  0.96618486  0.46908658  0.25425504    -0.74110
O118        O  0.86443250  0.46921529  0.24727026    -0.72880
Cu119      Cu  0.91543504  0.52775892  0.25122778     1.04560
Cu120      Cu  0.91526741  0.46720546  0.25080818     1.04330
C121        C  0.84854944  0.49753072  0.24613093     0.93420
C122        C  0.98224805  0.49734669  0.25551995     0.92560
C123        C  0.91640878  0.49827595  0.15317933     0.84540
C124        C  0.91388922  0.49691032  0.34891186     0.90970
O125        O  0.36503756  0.97075519  0.00119846    -0.72780
O126        O  0.46656408  0.97111729  0.00740470    -0.73760
O127        O  0.41492014  0.97164841  0.07880281    -0.62380
O128        O  0.41679124  0.97013187  0.42974708    -0.70790
O129        O  0.41654205  0.02673690  0.42856323    -0.70340
O130        O  0.41507770  0.02825689  0.07769768    -0.61600
O131        O  0.46658486  0.02768489  0.00605791    -0.74110
O132        O  0.36497618  0.02732334  0.00052311    -0.72880
Cu133      Cu  0.41582822  0.96893051  0.00432591     1.04560
Cu134      Cu  0.41578405  0.02949469  0.00310624     1.04330
C135        C  0.34902821  0.99899705  0.99999656     0.93420
C136        C  0.48253882  0.99942420  0.00796669     0.92560
C137        C  0.41493561  0.00011424  0.10157447     0.84700
C138        C  0.41684315  0.99825546  0.40583136     0.90970
O139        O  0.38769626  0.94802764  0.25188532    -0.72780
O140        O  0.38823529  0.05030603  0.25502572    -0.73760
O141        O  0.38726275  0.00021169  0.17869643    -0.62380
O142        O  0.38843052  0.99819217  0.32780217    -0.70790
O143        O  0.44472682  0.99783690  0.32879589    -0.70340
O144        O  0.44355843  0.00028677  0.17952768    -0.61600
O145        O  0.44448436  0.05018063  0.25604543    -0.74110
O146        O  0.44393777  0.94792994  0.25218903    -0.72880
Cu147      Cu  0.38593453  0.99919071  0.25329593     1.04560
Cu148      Cu  0.44615518  0.99904692  0.25414198     1.04330
C149        C  0.41576257  0.93189446  0.25130990     0.93420
C150        C  0.41643062  0.06631549  0.25656478     0.92560
C151        C  0.41523843  0.00036788  0.15577631     0.84700
C152        C  0.41670305  0.99793938  0.35163176     0.90970
N153        N  0.86359649  0.77397932  0.01363878    -0.27130
N154        N  0.84399776  0.74683292  0.01190544    -0.34980
C155        C  0.81135807  0.75714306  0.01039099     0.01210
C156        C  0.81069895  0.79272193  0.01004239     0.07240
C157        C  0.84455380  0.80204700  0.01204012    -0.05860
H158        H  0.78999738  0.73992325  0.00989876     0.07910
H159        H  0.85503794  0.82748472  0.01150943     0.09110
Cu160      Cu  0.86574479  0.69857263  0.00825027     0.44170
Cu161      Cu  0.91540290  0.77279161  0.01743379     0.41990
Cu162      Cu  0.96162965  0.69880904  0.99513957     0.43880
N163        N  0.89693432  0.65596358  0.00166886    -0.34510
N164        N  0.93034376  0.65616848  0.99717819    -0.28770
C165        C  0.94144978  0.62385969  0.99523124    -0.04870
C166        C  0.91392657  0.60234954  0.99845647     0.07350
C167        C  0.88614770  0.62345016  0.00237424     0.01150
H168        H  0.96774287  0.61660855  0.99213609     0.08800
H169        H  0.86000655  0.61576302  0.00619432     0.07880
N170        N  0.98494943  0.74616691  0.99968097    -0.35960
N171        N  0.96690915  0.77324485  0.01058338    -0.28140
C172        C  0.98663463  0.80091751  0.00997826    -0.03380
C173        C  0.01879181  0.79122411  0.99664915     0.05230
C174        C  0.01709720  0.75607251  0.99129422     0.03320
H175        H  0.97773139  0.82646799  0.01689841     0.08430
H176        H  0.03724323  0.73927176  0.98019476     0.07260
N177        N  0.14179050  0.94597680  0.00263143    -0.27130
N178        N  0.16873523  0.92701022  0.99543487    -0.34980
C179        C  0.15874951  0.89419761  0.99106866     0.01210
C180        C  0.12374824  0.89291104  0.99631662     0.07240
C181        C  0.11422064  0.92630991  0.00373909    -0.05860
H182        H  0.17547209  0.87319264  0.98320572     0.07910
H183        H  0.08882581  0.93592519  0.00840724     0.09110
Cu184      Cu  0.21615470  0.95001987  0.99205218     0.44170
Cu185      Cu  0.14222060  0.99795267  0.00542868     0.41990
Cu186      Cu  0.21604816  0.04701189  0.00309118     0.43880
N187        N  0.25846209  0.98186470  0.99522148    -0.34510
N188        N  0.25841372  0.01556950  0.99895193    -0.28770
C189        C  0.29063683  0.02671264  0.00067361    -0.04870
C190        C  0.31187396  0.99890288  0.99819101     0.07350
C191        C  0.29072366  0.97094563  0.99477413     0.01150
H192        H  0.29802296  0.05315706  0.00410701     0.08800
H193        H  0.29819330  0.94450791  0.99246969     0.07880
N194        N  0.16837179  0.06943208  0.00522648    -0.35960
N195        N  0.14117627  0.04996453  0.00461296    -0.28140
C196        C  0.11343561  0.06936413  0.00475373    -0.03380
C197        C  0.12317452  0.10317865  0.00608219     0.05230
C198        C  0.15846987  0.10233258  0.00657626     0.03320
H199        H  0.08790001  0.05934391  0.00397603     0.08430
H200        H  0.17562633  0.12379577  0.00851771     0.07260
N201        N  0.86439978  0.22354052  0.97859257    -0.27130
N202        N  0.84662452  0.24880793  0.99695439    -0.34980
C203        C  0.81492684  0.23760401  0.00546270     0.01210
C204        C  0.81281595  0.20362884  0.99127131     0.07240
C205        C  0.84475996  0.19585846  0.97446217    -0.05860
H206        H  0.79540474  0.25267260  0.02238792     0.07910
H207        H  0.85359168  0.17138750  0.96175152     0.09110
Cu208      Cu  0.86854676  0.29622259  0.00974711     0.44170
Cu209      Cu  0.91589171  0.22503904  0.96806089     0.41990
Cu210      Cu  0.96294570  0.29744424  0.00534737     0.43880
N211        N  0.89868417  0.33975917  0.01021186    -0.34510
N212        N  0.93220318  0.34004049  0.00870585    -0.28770
C213        C  0.94305088  0.37245583  0.00677415    -0.04870
C214        C  0.91514560  0.39354331  0.00680374     0.07350
C215        C  0.88745176  0.37208139  0.00913373     0.01150
H216        H  0.96932671  0.38003370  0.00448346     0.08800
H217        H  0.86103702  0.37935830  0.00914436     0.07880
N218        N  0.98555227  0.25060665  0.99462353    -0.35960
N219        N  0.96764133  0.22412683  0.97923651    -0.28140
C220        C  0.98746682  0.19647307  0.97928041    -0.03380
C221        C  0.01946173  0.20583009  0.99594726     0.05230
C222        C  0.01758716  0.24050566  0.00471642     0.03320
H223        H  0.97874584  0.17104751  0.97034282     0.08430
H224        H  0.03738587  0.25669130  0.01991655     0.07260
N225        N  0.68582324  0.94632150  0.97002920    -0.27130
N226        N  0.66121135  0.92875012  0.99053158    -0.34980
C227        C  0.67267940  0.89727619  0.00187265     0.01210
C228        C  0.70631237  0.89539863  0.98842413     0.07240
C229        C  0.71353452  0.92678336  0.96773043    -0.05860
H230        H  0.65841494  0.87811987  0.02149713     0.07910
H231        H  0.73789282  0.93563509  0.95523843     0.09110
Cu232      Cu  0.61533999  0.95142202  0.00652032     0.44170
Cu233      Cu  0.68388687  0.99815604  0.95795803     0.41990
Cu234      Cu  0.61646678  0.04609145  0.00924021     0.43880
N235        N  0.57292109  0.98224385  0.01166408    -0.34510
N236        N  0.57319283  0.01598085  0.01238427    -0.28770
C237        C  0.54104074  0.02727640  0.01196718    -0.04870
C238        C  0.51965917  0.99938829  0.01084752     0.07350
C239        C  0.54065257  0.97130948  0.01087192     0.01150
H240        H  0.53380720  0.05384215  0.01121231     0.08800
H241        H  0.53307396  0.94484910  0.00895593     0.07880
N242        N  0.66352030  0.06728224  0.99493050    -0.35960
N243        N  0.68733685  0.04945059  0.97324204    -0.28140
C244        C  0.71553932  0.06827817  0.97059566    -0.03380
C245        C  0.70971005  0.09941416  0.99263997     0.05230
C246        C  0.67614275  0.09821097  0.00687795     0.03320
H247        H  0.73907774  0.05926366  0.95559055     0.08430
H248        H  0.66244316  0.11770751  0.02638247     0.07260
C249        C  0.79369467  0.14487580  0.50815473    -0.12100
C250        C  0.78477708  0.17872314  0.99709745     0.04900
C251        C  0.75002386  0.18709491  0.99126910    -0.07390
C252        C  0.72554480  0.16101398  0.99349064    -0.08140
C253        C  0.73502475  0.12686344  0.00075329    -0.02690
C254        C  0.76942664  0.11904723  0.51072014     0.04130
N255        N  0.78015915  0.08529189  0.52464303     0.66640
H256        H  0.81995569  0.13839558  0.51565555     0.15540
H257        H  0.69917192  0.16716916  0.98616357     0.15250
N258        N  0.73912740  0.22116029  0.98000786     0.74340
O259        O  0.80822188  0.07396079  0.51034821    -0.39110
O260        O  0.76363743  0.06836045  0.05590004    -0.39050
O261        O  0.75226303  0.23744549  0.44479877    -0.39760
O262        O  0.71291874  0.23287620  0.99984275    -0.39820
C263        C  0.06818294  0.12660493  0.03139276    -0.12100
C264        C  0.09932772  0.13237360  0.00843039     0.04900
C265        C  0.10560008  0.16477736  0.48714451    -0.07390
C266        C  0.07992385  0.18963068  0.48715832    -0.08140
C267        C  0.04797264  0.18245201  0.00654101    -0.02690
C268        C  0.04251463  0.15103673  0.03073421     0.04130
N269        N  0.01121253  0.14354868  0.05500766     0.66640
H270        H  0.06359673  0.10267592  0.05021574     0.15540
H271        H  0.08406711  0.21374042  0.46850943     0.15250
N272        N  0.13650404  0.17219085  0.46217871     0.74340
O273        O  0.99975921  0.11350873  0.05545661    -0.39110
O274        O  0.99679652  0.16605179  0.08039539    -0.39050
O275        O  0.14626334  0.15300754  0.42780474    -0.39760
O276        O  0.15061737  0.20079835  0.96809935    -0.39820
C277        C  0.72363231  0.83438060  0.48738759    -0.12100
C278        C  0.73109276  0.86820784  0.00025625     0.04900
C279        C  0.76341189  0.87617775  0.02031234    -0.07390
C280        C  0.78794734  0.85068534  0.52430572    -0.08140
C281        C  0.78168789  0.81716693  0.00818495    -0.02690
C282        C  0.74865847  0.80888148  0.49029961     0.04130
N283        N  0.74044746  0.77565329  0.47193388     0.66640
H284        H  0.69885709  0.82819896  0.47184730     0.15540
H285        H  0.81218938  0.85745906  0.54085346     0.15250
N286        N  0.77170894  0.90985173  0.03756738     0.74340
O287        O  0.71391295  0.76092809  0.98618258    -0.39110
O288        O  0.75557393  0.76423370  0.43467529    -0.39050
O289        O  0.75127991  0.92603357  0.06410750    -0.39760
O290        O  0.80087586  0.92199883  0.53081176    -0.39820
C291        C  0.06777346  0.87143438  0.46928462    -0.12100
C292        C  0.09963005  0.86407302  0.99074091     0.04900
C293        C  0.10632091  0.83049221  0.00760393    -0.07390
C294        C  0.08017218  0.80601599  0.00553714    -0.08140
C295        C  0.04753965  0.81460261  0.98793031    -0.02690
C296        C  0.04185778  0.84730183  0.46736135     0.04130
N297        N  0.01006163  0.85647713  0.44404685     0.66640
H298        H  0.06284274  0.89642170  0.45358797     0.15540
H299        H  0.08467905  0.78092360  0.02117019     0.15250
N300        N  0.13834145  0.82127918  0.02990011     0.74340
O301        O  0.99824492  0.88609147  0.94932506    -0.39110
O302        O  0.99546022  0.83627091  0.41416204    -0.39050
O303        O  0.15105334  0.83910314  0.06447506    -0.39760
O304        O  0.15119034  0.79262644  0.52070832    -0.39820
C305        C  0.26649494  0.37504028  0.26670616    -0.12100
C306        C  0.23361542  0.36673183  0.24995444     0.04900
C307        C  0.22598581  0.33238955  0.23821240    -0.07390
C308        C  0.25199706  0.30787058  0.24077719    -0.08140
C309        C  0.28537905  0.31702655  0.25385439    -0.02690
C310        C  0.29229292  0.35069468  0.26939923     0.04130
N311        N  0.32512496  0.36047007  0.28873110     0.66640
H312        H  0.27218612  0.40086434  0.27821257     0.15540
H313        H  0.24664307  0.28203922  0.22893626     0.15250
N314        N  0.19299910  0.32229272  0.22025670     0.74340
O315        O  0.33609495  0.39030799  0.28190239    -0.39110
O316        O  0.34147321  0.34071525  0.31748729    -0.39050
O317        O  0.17832022  0.33902269  0.18599257    -0.39760
O318        O  0.18092563  0.29384412  0.23292974    -0.39820
C319        C  0.25031235  0.69051006  0.23896251    -0.12100
C320        C  0.28130742  0.68181094  0.26223400     0.04900
C321        C  0.28503380  0.64908803  0.28382462    -0.07390
C322        C  0.25956352  0.62481998  0.27639944    -0.08140
C323        C  0.22964593  0.63253017  0.24987679    -0.02690
C324        C  0.22427326  0.66620996  0.23246260     0.04130
N325        N  0.19384267  0.67575180  0.20567059     0.66640
H326        H  0.24722126  0.71561221  0.22268650     0.15540
H327        H  0.26303092  0.59954206  0.29198440     0.15250
N328        N  0.31419107  0.64019594  0.31400930     0.74340
O329        O  0.18242440  0.70563889  0.20927735    -0.39110
O330        O  0.18056416  0.65590790  0.17403228    -0.39050
O331        O  0.32598788  0.66103045  0.34552526    -0.39760
O332        O  0.32582644  0.61026740  0.31330188    -0.39820
C333        C  0.54331320  0.64827383  0.22140292    -0.12100
C334        C  0.54940680  0.68103789  0.24049916     0.04900
C335        C  0.58232105  0.68898346  0.25903509    -0.07390
C336        C  0.60743375  0.66350894  0.26024927    -0.08140
C337        C  0.60011742  0.63015862  0.24475704    -0.02690
C338        C  0.56803320  0.62285967  0.22327126     0.04130
N339        N  0.56016045  0.58992903  0.20276910     0.66640
H340        H  0.51893810  0.64219372  0.20455153     0.15540
H341        H  0.63204418  0.66913505  0.27679991     0.15250
N342        N  0.59018621  0.72162227  0.28002564     0.74340
O343        O  0.53064176  0.57782916  0.20601028    -0.39110
O344        O  0.58152736  0.57449935  0.17687407    -0.39050
O345        O  0.57269383  0.73309446  0.31491163    -0.39760
O346        O  0.61789508  0.73595916  0.27017638    -0.39820
C347        C  0.57746080  0.31070496  0.24102794    -0.12100
C348        C  0.54322528  0.32039331  0.24179783     0.04900
C349        C  0.53527095  0.35493479  0.25060674    -0.07390
C350        C  0.56130399  0.37884778  0.25580267    -0.08140
C351        C  0.59562440  0.36942688  0.25571125    -0.02690
C352        C  0.60367886  0.33463281  0.24867964     0.04130
N353        N  0.63797478  0.32280709  0.25112853     0.66640
H354        H  0.58390871  0.28424347  0.23506282     0.15540
H355        H  0.55418792  0.40514503  0.26096584     0.15250
N356        N  0.50108338  0.36611096  0.25739527     0.74340
O357        O  0.65589467  0.32802576  0.28972241    -0.39110
O358        O  0.64861963  0.30281221  0.21834820    -0.39050
O359        O  0.48296397  0.35174013  0.28940769    -0.39760
O360        O  0.49088233  0.39349751  0.23748216    -0.39820
N361        N  0.64350325  0.44789154  0.77830331    -0.27130
N362        N  0.66716368  0.42997184  0.75653263    -0.34980
C363        C  0.65471212  0.39868814  0.74627629     0.01210
C364        C  0.62158297  0.39680715  0.76302547     0.07240
C365        C  0.61577595  0.42865359  0.78330386    -0.05860
H366        H  0.66827136  0.37953094  0.72595219     0.07910
H367        H  0.59253045  0.43803589  0.79870818     0.09110
Cu368      Cu  0.71413871  0.45137023  0.74140175     0.44170
Cu369      Cu  0.64608587  0.49973080  0.78975052     0.41990
Cu370      Cu  0.71585201  0.54620158  0.74471352     0.43880
N371        N  0.75773248  0.48134376  0.73984932    -0.34510
N372        N  0.75817606  0.51508072  0.74098888    -0.28770
C373        C  0.79050044  0.52585868  0.74267242    -0.04870
C374        C  0.81139484  0.49770141  0.74283169     0.07350
C375        C  0.78986251  0.46991342  0.74089449     0.01150
H376        H  0.79817550  0.55228145  0.74486843     0.08800
H377        H  0.79697730  0.44331427  0.74138304     0.07880
N378        N  0.66946190  0.56898222  0.75719990    -0.35960
N379        N  0.64414083  0.55138648  0.77575309    -0.28140
C380        C  0.61637664  0.57096000  0.77612661    -0.03380
C381        C  0.62436785  0.60244707  0.75640718     0.05230
C382        C  0.65844748  0.60055831  0.74540307     0.03320
H383        H  0.59165310  0.56223458  0.78725653     0.08430
H384        H  0.67349059  0.61988902  0.72745593     0.07260
N385        N  0.46703965  0.72259827  0.74376912    -0.27130
N386        N  0.48605344  0.75007044  0.74026050    -0.34980
C387        C  0.51882249  0.74033068  0.73846650     0.01210
C388        C  0.52013036  0.70489112  0.74174572     0.07240
C389        C  0.48665325  0.69490761  0.74510077    -0.05860
H390        H  0.53987838  0.75768643  0.73444953     0.07910
H391        H  0.47699394  0.66922721  0.74843033     0.09110
Cu392      Cu  0.46346695  0.79805542  0.74008863     0.44170
Cu393      Cu  0.41524624  0.72295669  0.74516389     0.41990
Cu394      Cu  0.36741503  0.79795811  0.75127719     0.43880
N395        N  0.43225236  0.84078365  0.74503246    -0.34510
N396        N  0.39878180  0.84072921  0.74873687    -0.28770
C397        C  0.38791001  0.87312279  0.75135391    -0.04870
C398        C  0.41565569  0.89450393  0.74946441     0.07350
C399        C  0.44329005  0.87322409  0.74546316     0.01150
H400        H  0.36167735  0.88052246  0.75471040     0.08800
H401        H  0.46957787  0.88073636  0.74306365     0.07880
N402        N  0.34473524  0.75003811  0.75293833    -0.35960
N403        N  0.36356403  0.72249855  0.74934042    -0.28140
C404        C  0.34396482  0.69477834  0.75146952    -0.03380
C405        C  0.31088804  0.70493472  0.75806197     0.05230
C406        C  0.31212276  0.74036294  0.75791411     0.03320
H407        H  0.35334624  0.66901346  0.74857559     0.08430
H408        H  0.29108360  0.75767995  0.76191620     0.07260
N409        N  0.36329018  0.27239441  0.72494575    -0.27130
N410        N  0.34632136  0.24717590  0.74542869    -0.34980
C411        C  0.31538066  0.25852328  0.75774947     0.01210
C412        C  0.31329188  0.29275289  0.74517949     0.07240
C413        C  0.34396895  0.30043184  0.72393076    -0.05860
H414        H  0.29646862  0.24345950  0.77634983     0.07910
H415        H  0.35217349  0.32499780  0.71034998     0.09110
Cu416      Cu  0.36885223  0.20015342  0.75816158     0.44170
Cu417      Cu  0.41383334  0.26971882  0.70729096     0.41990
Cu418      Cu  0.46308297  0.20121123  0.75667322     0.43880
N419        N  0.39960362  0.15728986  0.76110816    -0.34510
N420        N  0.43315715  0.15753184  0.76079121    -0.28770
C421        C  0.44430733  0.12516487  0.75976161    -0.04870
C422        C  0.41652872  0.10367318  0.75921922     0.07350
C423        C  0.38866922  0.12485031  0.76027570     0.01150
H424        H  0.47067377  0.11787230  0.75821834     0.08800
H425        H  0.36230514  0.11729849  0.75932292     0.07880
N426        N  0.48407793  0.24828913  0.73886377    -0.35960
N427        N  0.46575044  0.27211859  0.71648439    -0.28140
C428        C  0.48458914  0.30022922  0.71103309    -0.03380
C429        C  0.51622720  0.29457216  0.73255739     0.05230
C430        C  0.51523622  0.26097763  0.74899846     0.03320
H431        H  0.47501491  0.32378285  0.69533239     0.08430
H432        H  0.53494506  0.24749893  0.76943920     0.07260
N433        N  0.18941841  0.44728277  0.73188440    -0.27130
N434        N  0.16383809  0.42868100  0.74742552    -0.34980
C435        C  0.17483799  0.39651468  0.75533581     0.01210
C436        C  0.20900676  0.39509659  0.74389756     0.07240
C437        C  0.21713123  0.42783673  0.72929506    -0.05860
H438        H  0.15947135  0.37609215  0.76985235     0.07910
H439        H  0.24177773  0.43720026  0.71886591     0.09110
Cu440      Cu  0.11638664  0.45044197  0.75790990     0.44170
Cu441      Cu  0.18767907  0.49918071  0.72143470     0.41990
Cu442      Cu  0.11526805  0.54588461  0.75481852     0.43880
N443        N  0.07307851  0.48083261  0.75958373    -0.34510
N444        N  0.07284045  0.51459534  0.75866432    -0.28770
C445        C  0.04055762  0.52547311  0.75779466    -0.04870
C446        C  0.01946826  0.49739096  0.75800942     0.07350
C447        C  0.04086459  0.46953069  0.75924209     0.01150
H448        H  0.03302280  0.55193778  0.75601546     0.08800
H449        H  0.03358235  0.44295880  0.75892061     0.07880
N450        N  0.16165844  0.56925510  0.74298250    -0.35960
N451        N  0.18797912  0.55130573  0.72888070    -0.28140
C452        C  0.21521880  0.57156234  0.72690171    -0.03380
C453        C  0.20582595  0.60409860  0.74019549     0.05230
C454        C  0.17156546  0.60179842  0.75032992     0.03320
H455        H  0.24050421  0.56282758  0.71893167     0.08430
H456        H  0.15558189  0.62174077  0.76448267     0.07260
O457        O  0.94306543  0.44699649  0.50330078    -0.72780
O458        O  0.94252043  0.54916813  0.49956994    -0.73760
O459        O  0.94380428  0.49890607  0.57591168    -0.62380
O460        O  0.94229547  0.49712444  0.92691925    -0.70790
O461        O  0.88600138  0.49688643  0.92604924    -0.70340
O462        O  0.88750744  0.49832148  0.57543549    -0.61600
O463        O  0.88627221  0.54868182  0.49951376    -0.74110
O464        O  0.88680224  0.44669020  0.50262256    -0.72880
Cu465      Cu  0.94489251  0.49806907  0.50139159     1.04560
Cu466      Cu  0.88465972  0.49764493  0.50082995     1.04330
C467        C  0.91498863  0.43080896  0.50401744     0.93420
C468        C  0.91425926  0.56498847  0.49912719     0.92560
C469        C  0.91590577  0.49860578  0.59899646     0.84700
C470        C  0.91401076  0.49683470  0.90314059     0.90970
O471        O  0.86462938  0.52577661  0.74781571    -0.72780
O472        O  0.96629502  0.52564064  0.75446758    -0.73760
O473        O  0.91642559  0.52641008  0.67673339    -0.62380
O474        O  0.91430300  0.52530973  0.82569422    -0.70790
O475        O  0.91406359  0.46870617  0.82546950    -0.70340
O476        O  0.91632468  0.46980052  0.67626108    -0.61600
O477        O  0.96618544  0.46908679  0.75423871    -0.74110
O478        O  0.86443270  0.46921571  0.74729250    -0.72880
Cu479      Cu  0.91543575  0.52775932  0.75122444     1.04560
Cu480      Cu  0.91526778  0.46720579  0.75081140     1.04330
C481        C  0.84854967  0.49753115  0.74615647     0.93420
C482        C  0.98224884  0.49734690  0.75549435     0.92560
C483        C  0.91639201  0.49827091  0.65317835     0.84540
C484        C  0.91390702  0.49691610  0.84891280     0.90970
O485        O  0.36502491  0.97075486  0.50119828    -0.72780
O486        O  0.46655107  0.97110905  0.50740471    -0.73760
O487        O  0.41490760  0.97164486  0.57880300    -0.62380
O488        O  0.41680385  0.97013551  0.92974765    -0.70790
O489        O  0.41655041  0.02674051  0.92856293    -0.70340
O490        O  0.41506924  0.02825333  0.57769724    -0.61600
O491        O  0.46657621  0.02767665  0.50605822    -0.74110
O492        O  0.36496686  0.02732300  0.50052285    -0.72880
Cu493      Cu  0.41581522  0.96892658  0.50432573     1.04560
Cu494      Cu  0.41577537  0.02949076  0.50310620     1.04330
C495        C  0.34901717  0.99899761  0.49999637     0.93420
C496        C  0.48252799  0.99941465  0.50796712     0.92560
C497        C  0.41492588  0.00011089  0.60157436     0.84700
C498        C  0.41685292  0.99825889  0.90583148     0.90970
O499        O  0.38769661  0.94802765  0.75189174    -0.72780
O500        O  0.38823532  0.05030575  0.75502679    -0.73760
O501        O  0.38725767  0.00020937  0.67870014    -0.62380
O502        O  0.38843582  0.99819421  0.82780598    -0.70790
O503        O  0.44473209  0.99783857  0.82879227    -0.70340
O504        O  0.44355331  0.00028540  0.67952382    -0.61600
O505        O  0.44448439  0.05018054  0.75603985    -0.74110
O506        O  0.44393805  0.94793027  0.75218732    -0.72880
Cu507      Cu  0.38593468  0.99919056  0.75330000     1.04560
Cu508      Cu  0.44615530  0.99904706  0.75413795     1.04330
C509        C  0.41576293  0.93189470  0.75131263     0.93420
C510        C  0.41643066  0.06631524  0.75656230     0.92560
C511        C  0.41523185  0.00036532  0.65577622     0.84700
C512        C  0.41670978  0.99794198  0.85163186     0.90970
N513        N  0.86359384  0.77397331  0.51364119    -0.27130
N514        N  0.84399526  0.74682683  0.51191032    -0.34980
C515        C  0.81135556  0.75713649  0.51039596     0.01210
C516        C  0.81069602  0.79271526  0.51004440     0.07240
C517        C  0.84455084  0.80204086  0.51204088    -0.05860
H518        H  0.78999519  0.73991630  0.50990566     0.07910
H519        H  0.85503466  0.82747869  0.51150824     0.09110
Cu520      Cu  0.86574207  0.69856695  0.50825667     0.44170
Cu521      Cu  0.91540029  0.77278373  0.51743541     0.41990
Cu522      Cu  0.96162723  0.69879837  0.49514498     0.43880
N523        N  0.89692871  0.65595660  0.50167283    -0.34510
N524        N  0.93033816  0.65615898  0.49718195    -0.28770
C525        C  0.94144116  0.62384908  0.49523287    -0.04870
C526        C  0.91391587  0.60234120  0.49845686     0.07350
C527        C  0.88613910  0.62344421  0.50237619     0.01150
H528        H  0.96773355  0.61659556  0.49213719     0.08800
H529        H  0.85999725  0.61575941  0.50619607     0.07880
N530        N  0.98494733  0.74615719  0.49968510    -0.35960
N531        N  0.96690671  0.77323517  0.51058654    -0.28140
C532        C  0.98663173  0.80090810  0.50998071    -0.03380
C533        C  0.01878908  0.79121538  0.49665183     0.05230
C534        C  0.01709507  0.75606347  0.49129803     0.03320
H535        H  0.97772788  0.82645853  0.51689965     0.08430
H536        H  0.03724141  0.73926304  0.48019873     0.07260
N537        N  0.14177661  0.94597915  0.50262730    -0.27130
N538        N  0.16872269  0.92701365  0.49543463    -0.34980
C539        C  0.15873900  0.89420031  0.49107011     0.01210
C540        C  0.12373756  0.89291169  0.49631511     0.07240
C541        C  0.11420772  0.92631053  0.50373386    -0.05860
H542        H  0.17546326  0.87319605  0.48321064     0.07910
H543        H  0.08881214  0.93592440  0.50839974     0.09110
Cu544      Cu  0.21614192  0.95002443  0.49205482     0.44170
Cu545      Cu  0.14220521  0.99795584  0.50542464     0.41990
Cu546      Cu  0.21603700  0.04701448  0.50309105     0.43880
N547        N  0.25845048  0.98186785  0.49522278    -0.34510
N548        N  0.25840285  0.01557266  0.49895225    -0.28770
C549        C  0.29062625  0.02671523  0.50067317    -0.04870
C550        C  0.31186280  0.99890494  0.49819099     0.07350
C551        C  0.29071179  0.97094811  0.49477522     0.01150
H552        H  0.29801295  0.05315953  0.50410581     0.08800
H553        H  0.29818082  0.94451018  0.49247146     0.07880
N554        N  0.16836082  0.06943489  0.50522667    -0.35960
N555        N  0.14116431  0.04996856  0.50461249    -0.28140
C556        C  0.11342471  0.06936982  0.50475467    -0.03380
C557        C  0.12316548  0.10318385  0.50608434     0.05230
C558        C  0.15846065  0.10233588  0.50657786     0.03320
H559        H  0.08788849  0.05935119  0.50397698     0.08430
H560        H  0.17561822  0.12379817  0.50851987     0.07260
N561        N  0.86438986  0.22352461  0.47859953    -0.27130
N562        N  0.84661135  0.24879002  0.49696062    -0.34980
C563        C  0.81491495  0.23758227  0.50546802     0.01210
C564        C  0.81280813  0.20360687  0.49127660     0.07240
C565        C  0.84475336  0.19584010  0.47446899    -0.05860
H566        H  0.79539054  0.25264897  0.52239109     0.07910
H567        H  0.85358779  0.17137050  0.46175697     0.09110
Cu568      Cu  0.86852555  0.29620899  0.50975099     0.44170
Cu569      Cu  0.91588106  0.22503002  0.46806294     0.41990
Cu570      Cu  0.96292378  0.29743925  0.50535363     0.43880
N571        N  0.89865828  0.33974921  0.51021537    -0.34510
N572        N  0.93217732  0.34003245  0.50871088    -0.28770
C573        C  0.94302330  0.37244813  0.50677815    -0.04870
C574        C  0.91511716  0.39353433  0.50680546     0.07350
C575        C  0.88742413  0.37207105  0.50913530     0.01150
H576        H  0.96929885  0.38002715  0.50448813     0.08800
H577        H  0.86100903  0.37934673  0.50914444     0.07880
N578        N  0.98553831  0.25060647  0.49462355    -0.35960
N579        N  0.96763118  0.22412496  0.47923339    -0.28140
C580        C  0.98746053  0.19647409  0.47927447    -0.03380
C581        C  0.01945401  0.20583478  0.49594286     0.05230
C582        C  0.01757457  0.24050956  0.50471603     0.03320
H583        H  0.97874279  0.17104749  0.47033653     0.08430
H584        H  0.03737050  0.25669687  0.51992022     0.07260
N585        N  0.68580872  0.94630399  0.47002178    -0.27130
N586        N  0.66119910  0.92873305  0.49053078    -0.34980
C587        C  0.67266996  0.89726092  0.50187675     0.01210
C588        C  0.70630230  0.89538441  0.48842451     0.07240
C589        C  0.71352114  0.92676754  0.46772363    -0.05860
H590        H  0.65840796  0.87810540  0.52150671     0.07910
H591        H  0.73787813  0.93561976  0.45522712     0.09110
Cu592      Cu  0.61532714  0.95140382  0.50652144     0.44170
Cu593      Cu  0.68387046  0.99813725  0.45794297     0.41990
Cu594      Cu  0.61645818  0.04607248  0.50924168     0.43880
N595        N  0.57290919  0.98222750  0.51166581    -0.34510
N596        N  0.57318297  0.01596447  0.51238656    -0.28770
C597        C  0.54103173  0.02726225  0.51196920    -0.04870
C598        C  0.51964832  0.99937570  0.51084874     0.07350
C599        C  0.54063986  0.97129535  0.51087302     0.01150
H600        H  0.53380004  0.05382851  0.51121436     0.08800
H601        H  0.53305944  0.94483551  0.50895630     0.07880
N602        N  0.66351108  0.06726185  0.49492647    -0.35960
N603        N  0.68732497  0.04943048  0.47323154    -0.28140
C604        C  0.71552832  0.06825665  0.47058379    -0.03380
C605        C  0.70970210  0.09939138  0.49263349     0.05230
C606        C  0.67613591  0.09818902  0.50687650     0.03320
H607        H  0.73906530  0.05924189  0.45557428     0.08430
H608        H  0.66243879  0.11768490  0.52638611     0.07260
C609        C  0.79370117  0.14490047  0.00816193    -0.12100
C610        C  0.78477015  0.17869935  0.49709644     0.04900
C611        C  0.75001693  0.18707103  0.49126876    -0.07390
C612        C  0.72553803  0.16099013  0.49348824    -0.08140
C613        C  0.73501798  0.12683931  0.50074666    -0.02690
C614        C  0.76943314  0.11907228  0.01073053     0.04130
N615        N  0.78016545  0.08531813  0.02465983     0.66640
H616        H  0.81996207  0.13842061  0.01566467     0.15540
H617        H  0.69916507  0.16714575  0.48616277     0.15250
N618        N  0.73912032  0.22113652  0.48000898     0.74340
O619        O  0.80822843  0.07398575  0.01036803    -0.39110
O620        O  0.76363175  0.06833158  0.55588098    -0.39050
O621        O  0.75227197  0.23746973  0.94479965    -0.39760
O622        O  0.71291238  0.23285234  0.49984592    -0.39820
C623        C  0.06817642  0.12661327  0.53139919    -0.12100
C624        C  0.09932036  0.13238011  0.50843368     0.04900
C625        C  0.10560721  0.16477170  0.98714408    -0.07390
C626        C  0.07993087  0.18962477  0.98715989    -0.08140
C627        C  0.04796598  0.18245903  0.50654139    -0.02690
C628        C  0.04250856  0.15104553  0.53073968     0.04130
N629        N  0.01120708  0.14355961  0.55501619     0.66640
H630        H  0.06359044  0.10268510  0.55022463     0.15540
H631        H  0.08407449  0.21373562  0.96851423     0.15250
N632        N  0.13651117  0.17218644  0.96217904     0.74340
O633        O  0.99975396  0.11351966  0.55547182    -0.39110
O634        O  0.99679098  0.16606531  0.58039904    -0.39050
O635        O  0.14627075  0.15300435  0.92780378    -0.39760
O636        O  0.15061071  0.20080270  0.46809722    -0.39820
C637        C  0.72363818  0.83439323  0.98738249    -0.12100
C638        C  0.73108517  0.86819618  0.50025744     0.04900
C639        C  0.76340501  0.87616945  0.52030821    -0.07390
C640        C  0.78795227  0.85069186  0.02431003    -0.08140
C641        C  0.78168411  0.81715915  0.50818541    -0.02690
C642        C  0.74866247  0.80889212  0.99029534     0.04130
N643        N  0.74044983  0.77566482  0.97192766     0.66640
H644        H  0.69886325  0.82821391  0.97183913     0.15540
H645        H  0.81219380  0.85746317  0.04086168     0.15250
N646        N  0.77170091  0.90984505  0.53755780     0.74340
O647        O  0.71391208  0.76091501  0.48619133    -0.39110
O648        O  0.75557693  0.76424472  0.93466997    -0.39050
O649        O  0.75127190  0.92602778  0.56409681    -0.39760
O650        O  0.80088476  0.92200450  0.03082514    -0.39820
C651        C  0.06778237  0.87143965  0.96928554    -0.12100
C652        C  0.09962159  0.86407127  0.49074107     0.04900
C653        C  0.10631533  0.83049117  0.50760525    -0.07390
C654        C  0.08016880  0.80601236  0.50553908    -0.08140
C655        C  0.04753566  0.81459551  0.48793099    -0.02690
C656        C  0.04186429  0.84730983  0.96736255     0.04130
N657        N  0.01006846  0.85648882  0.94405028     0.66640
H658        H  0.06285384  0.89642773  0.95359002     0.15540
H659        H  0.08467778  0.78092072  0.52117346     0.15250
N660        N  0.13833663  0.82128134  0.52990181     0.74340
O661        O  0.99823502  0.88607875  0.44931927    -0.39110
O662        O  0.99546462  0.83628501  0.91416446    -0.39050
O663        O  0.15104611  0.83910606  0.56447776    -0.39760
O664        O  0.15119183  0.79262262  0.02070750    -0.39820
C665        C  0.26649652  0.37503886  0.76670884    -0.12100
C666        C  0.23361727  0.36673119  0.74995491     0.04900
C667        C  0.22598731  0.33238913  0.73821205    -0.07390
C668        C  0.25199804  0.30786972  0.74077755    -0.08140
C669        C  0.28537993  0.31702513  0.75385597    -0.02690
C670        C  0.29229411  0.35069288  0.76940207     0.04130
N671        N  0.32512620  0.36046760  0.78873460     0.66640
H672        H  0.27218794  0.40086265  0.77821621     0.15540
H673        H  0.24664384  0.28203859  0.72893576     0.15250
N674        N  0.19300094  0.32229301  0.72025435     0.74340
O675        O  0.33609654  0.39030552  0.78190713    -0.39110
O676        O  0.34147439  0.34071192  0.81748957    -0.39050
O677        O  0.17832493  0.33902138  0.68598593    -0.39760
O678        O  0.18092554  0.29384573  0.73292960    -0.39820
C679        C  0.25031334  0.69051109  0.73896366    -0.12100
C680        C  0.28130808  0.68181248  0.76223646     0.04900
C681        C  0.28503452  0.64908987  0.78382788    -0.07390
C682        C  0.25956479  0.62482139  0.77640185    -0.08140
C683        C  0.22964787  0.63253081  0.74987694    -0.02690
C684        C  0.22427496  0.66621047  0.73246245     0.04130
N685        N  0.19384507  0.67575156  0.70566828     0.66640
H686        H  0.24722220  0.71561307  0.72268710     0.15540
H687        H  0.26303229  0.59954364  0.79198731     0.15250
N688        N  0.31419157  0.64019837  0.81401345     0.74340
O689        O  0.18242444  0.70563757  0.70927753    -0.39110
O690        O  0.18057039  0.65590889  0.67402495    -0.39050
O691        O  0.32598833  0.66103358  0.84552845    -0.39760
O692        O  0.32582718  0.61026990  0.81330717    -0.39820
C693        C  0.54331332  0.64827556  0.72139845    -0.12100
C694        C  0.54940689  0.68103914  0.74049632     0.04900
C695        C  0.58232080  0.68898408  0.75903410    -0.07390
C696        C  0.60743298  0.66350909  0.76024948    -0.08140
C697        C  0.60011639  0.63015900  0.74475640    -0.02690
C698        C  0.56803282  0.62286098  0.72326773     0.04130
N699        N  0.56016017  0.58993079  0.70276395     0.66640
H700        H  0.51893853  0.64219612  0.70454545     0.15540
H701        H  0.63204295  0.66913458  0.77680208     0.15250
N702        N  0.59018600  0.72162262  0.78002546     0.74340
O703        O  0.53064116  0.57783135  0.70600265    -0.39110
O704        O  0.58152777  0.57450111  0.67687013    -0.39050
O705        O  0.57269316  0.73309478  0.81491097    -0.39760
O706        O  0.61789525  0.73595922  0.77017749    -0.39820
C707        C  0.57745998  0.31070477  0.74102710    -0.12100
C708        C  0.54322427  0.32039253  0.74179546     0.04900
C709        C  0.53526912  0.35493382  0.75060395    -0.07390
C710        C  0.56130161  0.37884722  0.75580126    -0.08140
C711        C  0.59562224  0.36942689  0.75571236    -0.02690
C712        C  0.60367744  0.33463300  0.74868051     0.04130
N713        N  0.63797343  0.32280776  0.75113079     0.66640
H714        H  0.58390851  0.28424342  0.73506207     0.15540
H715        H  0.55418475  0.40514425  0.76096405     0.15250
N716        N  0.50108121  0.36610935  0.75739126     0.74340
O717        O  0.65589111  0.32802289  0.78972788    -0.39110
O718        O  0.64862016  0.30281597  0.71834785    -0.39050
O719        O  0.48296173  0.35173848  0.78940356    -0.39760
O720        O  0.49087991  0.39349558  0.73747747    -0.39820
loop_ 
_geom_bond_atom_site_label_1 
_geom_bond_atom_site_label_2 
_geom_bond_distance 
_geom_bond_site_symmetry_2 
_ccdc_geom_bond_type 
N1            N2   1.319       .  A
N1            C5   1.338       .  A
N1           Cu9   2.062       .  S
N2            C3   1.350       .  A
N2           Cu8   2.083       .  S
C3            C4   1.394       .  A
C3            H6   1.081       .  S
C4            C5   1.388       .  A
C4          C351   1.495       .  S
C5            H7   1.081       .  S
Cu8          N11   2.085       .  S
Cu9          N19   2.063       .  S
Cu10         N12   2.076       .  S
Cu10         N18   2.074       .  S
N11          N12   1.325       .  A
N11          C15   1.346       .  A
N12          C13   1.344       .  A
C13          C14   1.381       .  A
C13          H16   1.082       .  S
C14          C15   1.383       .  A
C14         C121   1.468       .  S
C15          H17   1.082       .  S
N18          N19   1.320       .  A
N18          C22   1.349       .  A
N19          C20   1.340       .  A
C20          C21   1.382       .  A
C20          H23   1.082       .  S
C21          C22   1.386       .  A
C21         C337   1.479       .  S
C22          H24   1.082       .  S
N25          N26   1.318       .  A
N25          C29   1.336       .  A
N25         Cu33   2.047       .  S
N26          C27   1.352       .  A
N26         Cu32   2.086       .  S
C27          C28   1.395       .  A
C27          H30   1.081       .  S
C28          C29   1.383       .  A
C28         C334   1.490       .  S
C29          H31   1.082       .  S
Cu32         N35   2.090       .  S
Cu33         N43   2.047       .  S
Cu34         N36   2.087       .  S
Cu34         N42   2.084       .  S
N35          N36   1.328       .  A
N35          C39   1.346       .  A
N36          C37   1.346       .  A
C37          C38   1.381       .  A
C37          H40   1.082       .  S
C38          C39   1.382       .  A
C38         C149   1.469       .  S
C39          H41   1.082       .  S
N42          N43   1.318       .  A
N42          C46   1.351       .  A
N43          C44   1.337       .  A
C44          C45   1.381       .  A
C44          H47   1.082       .  S
C45          C46   1.392       .  A
C45         C320   1.484       .  S
C46          H48   1.082       .  S
N49          N50   1.320       .  A
N49          C53   1.340       .  A
N49         Cu57   2.064       .  S
N50          C51   1.349       .  A
N50         Cu56   2.075       .  S
C51          C52   1.387       .  A
C51          H54   1.082       .  S
C52          C53   1.383       .  A
C52         C309   1.481       .  S
C53          H55   1.082       .  S
Cu56         N59   2.077       .  S
Cu57         N67   2.062       .  S
Cu58         N60   2.085       .  S
Cu58         N66   2.083       .  S
N59          N60   1.325       .  A
N59          C63   1.345       .  A
N60          C61   1.346       .  A
C61          C62   1.383       .  A
C61          H64   1.082       .  S
C62          C63   1.381       .  A
C62         C150   1.469       .  S
C63          H65   1.082       .  S
N66          N67   1.320       .  A
N66          C70   1.350       .  A
N67          C68   1.340       .  A
C68          C69   1.384       .  A
C68          H71   1.081       .  S
C69          C70   1.391       .  A
C69         C348   1.488       .  S
C70          H72   1.082       .  S
N73          N74   1.320       .  A
N73          C77   1.339       .  A
N73         Cu81   2.057       .  S
N74          C75   1.351       .  A
N74         Cu80   2.086       .  S
C75          C76   1.392       .  A
C75          H78   1.082       .  S
C76          C77   1.382       .  A
C76         C306   1.486       .  S
C77          H79   1.082       .  S
Cu80         N83   2.088       .  S
Cu81         N91   2.057       .  S
Cu82         N84   2.080       .  S
Cu82         N90   2.078       .  S
N83          N84   1.326       .  A
N83          C87   1.347       .  A
N84          C85   1.345       .  A
C85          C86   1.381       .  A
C85          H88   1.082       .  S
C86          C87   1.383       .  A
C86         C122   1.470   1_455  S
C87          H89   1.082       .  S
N90          N91   1.320       .  A
N90          C94   1.350       .  A
N91          C92   1.339       .  A
C92          C93   1.381       .  A
C92          H95   1.082       .  S
C93          C94   1.389       .  A
C93         C323   1.479       .  S
C94          H96   1.082       .  S
O97        Cu105   2.007       .  S
O97         C107   1.278       .  A
O98        Cu105   2.009   1_556  S
O98         C108   1.278       .  A
O99        Cu105   2.008       .  S
O99         C109   1.276       .  A
O100       Cu465   2.006       .  S
O100        C110   1.276       .  A
O101       Cu466   2.016       .  S
O101        C110   1.278       .  A
O102       Cu106   2.010       .  S
O102        C109   1.277       .  A
O103       Cu106   2.005   1_556  S
O103        C108   1.277       .  A
O104       Cu106   2.003       .  S
O104        C107   1.277       .  A
Cu105       O460   2.006   1_554  S
Cu105      Cu106   2.378       .  S
Cu106       O461   2.016   1_554  S
C107        C214   1.465       .  S
C108        C166   1.467       .  S
C109        C123   1.459       .  S
C110        C124   1.460       .  S
O111       Cu119   2.008       .  S
O111        C121   1.278       .  A
O112       Cu119   2.010       .  S
O112        C122   1.278       .  A
O113       Cu119   2.008       .  S
O113        C123   1.276       .  A
O114       Cu119   2.009       .  S
O114        C124   1.276       .  A
O115       Cu120   2.013       .  S
O115        C124   1.277       .  A
O116       Cu120   2.011       .  S
O116        C123   1.277       .  A
O117       Cu120   2.012       .  S
O117        C122   1.278       .  A
O118       Cu120   2.010       .  S
O118        C121   1.277       .  A
Cu119      Cu120   2.378       .  S
O125       Cu133   2.007       .  S
O125        C135   1.277   1_554  A
O126       Cu133   2.005       .  S
O126        C136   1.277       .  A
O127       Cu133   2.010       .  S
O127        C137   1.277   1_565  A
O128       Cu493   2.010       .  S
O128        C138   1.276       .  A
O129       Cu494   2.011       .  S
O129        C138   1.277   1_545  A
O130       Cu134   2.010       .  S
O130        C137   1.277       .  A
O131       Cu134   2.008       .  S
O131        C136   1.277   1_545  A
O132       Cu134   2.008       .  S
O132        C135   1.277   1_544  A
Cu133       O488   2.010   1_554  S
Cu133      Cu134   2.378   1_565  S
Cu134       O489   2.011   1_554  S
C135        C190   1.467       .  S
C136        C238   1.466       .  S
C137        C151   1.459       .  S
C138        C152   1.459       .  S
O139       Cu147   2.011       .  S
O139        C149   1.278       .  A
O140       Cu147   2.010   1_545  S
O140        C150   1.278       .  A
O141       Cu147   2.011   1_545  S
O141        C151   1.277       .  A
O142       Cu147   2.007       .  S
O142        C152   1.276       .  A
O143       Cu148   2.012       .  S
O143        C152   1.277       .  A
O144       Cu148   2.010   1_545  S
O144        C151   1.277       .  A
O145       Cu148   2.010   1_545  S
O145        C150   1.277       .  A
O146       Cu148   2.010       .  S
O146        C149   1.278       .  A
Cu147      Cu148   2.378       .  S
N153        N154   1.317       .  A
N153        C157   1.335       .  A
N153       Cu161   2.047       .  S
N154        C155   1.351       .  A
N154       Cu160   2.085       .  S
C155        C156   1.397       .  A
C155        H158   1.080       .  S
C156        C157   1.386       .  A
C156        C281   1.496       .  S
C157        H159   1.081       .  S
Cu160       N163   2.089       .  S
Cu161       N171   2.046       .  S
Cu162       N164   2.081       .  S
Cu162       N170   2.077       .  S
N163        N164   1.327   1_554  A
N163        C167   1.346       .  A
N164        C165   1.345       .  A
C165        C166   1.380       .  A
C165        H168   1.082       .  S
C166        C167   1.382   1_556  A
C167        H169   1.082       .  S
N170        N171   1.318   1_556  A
N170        C174   1.351   1_655  A
N171        C172   1.336       .  A
C172        C173   1.381   1_654  A
C172        H175   1.082       .  S
C173        C174   1.390       .  A
C173        C295   1.481       .  S
C174        H176   1.082       .  S
N177        N178   1.318   1_554  A
N177        C181   1.335       .  A
N177       Cu185   2.043       .  S
N178        C179   1.352       .  A
N178       Cu184   2.082       .  S
C179        C180   1.393       .  A
C179        H182   1.082       .  S
C180        C181   1.381   1_556  A
C180        C292   1.485       .  S
C181        H183   1.082       .  S
Cu184       N187   2.086       .  S
Cu185       N195   2.043   1_565  S
Cu186       N188   2.086   1_554  S
Cu186       N194   2.082       .  S
N187        N188   1.328   1_565  A
N187        C191   1.345       .  A
N188        C189   1.345   1_556  A
C189        C190   1.381   1_544  A
C189        H192   1.082       .  S
C190        C191   1.381       .  A
C191        H193   1.082       .  S
N194        N195   1.317       .  A
N194        C198   1.351       .  A
N195        C196   1.335       .  A
C196        C197   1.382       .  A
C196        H199   1.082       .  S
C197        C198   1.394       .  A
C197        C264   1.487       .  S
C198        H200   1.081       .  S
N201        N202   1.320       .  A
N201        C205   1.338       .  A
N201       Cu209   2.060       .  S
N202        C203   1.350   1_556  A
N202       Cu208   2.079   1_556  S
C203        C204   1.391   1_554  A
C203        H206   1.082       .  S
C204        C205   1.384       .  A
C204        C250   1.487       .  S
C205        H207   1.082       .  S
Cu208       N211   2.082       .  S
Cu209       N219   2.060       .  S
Cu210       N212   2.072       .  S
Cu210       N218   2.069   1_554  S
N211        N212   1.325       .  A
N211        C215   1.345       .  A
N212        C213   1.344       .  A
C213        C214   1.379       .  A
C213        H216   1.082       .  S
C214        C215   1.382       .  A
C215        H217   1.082       .  S
N218        N219   1.320       .  A
N218        C222   1.348   1_656  A
N219        C220   1.340       .  A
C220        C221   1.382   1_655  A
C220        H223   1.082       .  S
C221        C222   1.385   1_556  A
C221        C267   1.476   1_556  S
C222        H224   1.082       .  S
N225        N226   1.320       .  A
N225        C229   1.340       .  A
N225       Cu233   2.061       .  S
N226        C227   1.349   1_556  A
N226       Cu232   2.073   1_556  S
C227        C228   1.386   1_554  A
C227        H230   1.082       .  S
C228        C229   1.382       .  A
C228        C278   1.479   1_556  S
C229        H231   1.082       .  S
Cu232       N235   2.075       .  S
Cu233       N243   2.061   1_565  S
Cu234       N236   2.080       .  S
Cu234       N242   2.078   1_554  S
N235        N236   1.325   1_565  A
N235        C239   1.344       .  A
N236        C237   1.345       .  A
C237        C238   1.382   1_545  A
C237        H240   1.082       .  S
C238        C239   1.380       .  A
C239        H241   1.082       .  S
N242        N243   1.320       .  A
N242        C246   1.350   1_556  A
N243        C244   1.339       .  A
C244        C245   1.383       .  A
C244        H247   1.082       .  S
C245        C246   1.388   1_556  A
C245        C253   1.483   1_556  S
C246        H248   1.082       .  S
C249        C254   1.397       .  A
C249        C610   1.404       .  A
C249        H256   1.083       .  S
C250        C251   1.417       .  A
C250        C609   1.404   1_556  A
C251        C252   1.409       .  A
C251        N258   1.435       .  S
C252        C253   1.405   1_556  A
C252        H257   1.084       .  S
C253        C614   1.413       .  A
C254        C613   1.413       .  A
C254        N255   1.438       .  S
N255        O259   1.263       .  A
N255        O620   1.263       .  A
N258        O262   1.263       .  A
N258        O621   1.262       .  A
O260        N615   1.263       .  A
O261        N618   1.262       .  A
C263        C264   1.406       .  A
C263        C268   1.397       .  A
C263        H270   1.083       .  S
C264        C625   1.417   1_554  A
C265        C266   1.408       .  A
C265        C624   1.417       .  A
C265        N272   1.434       .  S
C266        C627   1.403       .  A
C266        H271   1.084       .  S
C267        C268   1.411       .  A
C267        C626   1.403   1_554  A
C268        N269   1.440       .  S
N269        O273   1.263   1_455  A
N269        O274   1.263   1_455  A
N272        O275   1.262       .  A
N272        O636   1.263       .  A
O276        N632   1.263       .  A
C277        C282   1.409       .  A
C277        C638   1.403       .  A
C277        H284   1.084       .  S
C278        C279   1.411       .  A
C278        C637   1.403   1_554  A
C279        C640   1.396       .  A
C279        N286   1.438       .  S
C280        C639   1.396       .  A
C280        C641   1.408       .  A
C280        H285   1.081       .  S
C281        C640   1.408       .  A
C281        C642   1.419   1_554  A
C282        C641   1.419       .  A
C282        N283   1.432       .  S
N283        O288   1.262       .  A
N283        O647   1.262       .  A
N286        O289   1.263       .  A
N286        O650   1.263       .  A
O287        N643   1.262       .  A
O290        N646   1.263       .  A
C291        C296   1.394       .  A
C291        C652   1.403       .  A
C291        H298   1.083       .  S
C292        C293   1.416   1_556  A
C292        C651   1.403       .  A
C293        C294   1.410       .  A
C293        N300   1.435       .  S
C294        C295   1.405   1_554  A
C294        H299   1.084       .  S
C295        C656   1.413       .  A
C296        C655   1.413       .  A
C296        N297   1.438       .  S
N297        O302   1.262   1_455  A
N297        O661   1.263   1_455  A
N300        O303   1.262       .  A
N300        O664   1.263       .  A
O301        N657   1.263   1_655  A
O304        N660   1.263       .  A
C305        C306   1.404       .  A
C305        C310   1.399       .  A
C305        H312   1.083       .  S
C306        C307   1.417       .  A
C307        C308   1.409       .  A
C307        N314   1.436       .  S
C308        C309   1.404       .  A
C308        H313   1.084       .  S
C309        C310   1.413       .  A
C310        N311   1.439       .  S
N311        O315   1.263       .  A
N311        O316   1.263       .  A
N314        O317   1.262       .  A
N314        O318   1.263       .  A
C319        C320   1.406       .  A
C319        C324   1.411       .  A
C319        H326   1.083       .  S
C320        C321   1.415       .  A
C321        C322   1.397       .  A
C321        N328   1.438       .  S
C322        C323   1.401       .  A
C322        H327   1.084       .  S
C323        C324   1.416       .  A
C324        N325   1.438       .  S
N325        O329   1.263       .  A
N325        O330   1.262       .  A
N328        O331   1.263       .  A
N328        O332   1.263       .  A
C333        C334   1.406       .  A
C333        C338   1.397       .  A
C333        H340   1.082       .  S
C334        C335   1.417       .  A
C335        C336   1.409       .  A
C335        N342   1.434       .  S
C336        C337   1.404       .  A
C336        H341   1.084       .  S
C337        C338   1.411       .  A
C338        N339   1.439       .  S
N339        O343   1.263       .  A
N339        O344   1.263       .  A
N342        O345   1.262       .  A
N342        O346   1.262       .  A
C347        C348   1.406       .  A
C347        C352   1.410       .  A
C347        H354   1.084       .  S
C348        C349   1.415       .  A
C349        C350   1.397       .  A
C349        N356   1.436       .  S
C350        C351   1.406       .  A
C350        H355   1.081       .  S
C351        C352   1.418       .  A
C352        N353   1.433       .  S
N353        O357   1.262       .  A
N353        O358   1.262       .  A
N356        O359   1.263       .  A
N356        O360   1.263       .  A
N361        N362   1.319       .  A
N361        C365   1.338       .  A
N361       Cu369   2.062       .  S
N362        C363   1.350       .  A
N362       Cu368   2.083       .  S
C363        C364   1.394       .  A
C363        H366   1.081       .  S
C364        C365   1.388       .  A
C364        C711   1.495       .  S
C365        H367   1.081       .  S
Cu368       N371   2.085       .  S
Cu369       N379   2.063       .  S
Cu370       N372   2.076       .  S
Cu370       N378   2.074       .  S
N371        N372   1.325       .  A
N371        C375   1.346       .  A
N372        C373   1.344       .  A
C373        C374   1.381       .  A
C373        H376   1.082       .  S
C374        C375   1.383       .  A
C374        C481   1.468       .  S
C375        H377   1.082       .  S
N378        N379   1.320       .  A
N378        C382   1.349       .  A
N379        C380   1.340       .  A
C380        C381   1.382       .  A
C380        H383   1.082       .  S
C381        C382   1.386       .  A
C381        C697   1.479       .  S
C382        H384   1.082       .  S
N385        N386   1.318       .  A
N385        C389   1.336       .  A
N385       Cu393   2.047       .  S
N386        C387   1.352       .  A
N386       Cu392   2.086       .  S
C387        C388   1.395       .  A
C387        H390   1.081       .  S
C388        C389   1.383       .  A
C388        C694   1.490       .  S
C389        H391   1.082       .  S
Cu392       N395   2.090       .  S
Cu393       N403   2.047       .  S
Cu394       N396   2.087       .  S
Cu394       N402   2.084       .  S
N395        N396   1.328       .  A
N395        C399   1.346       .  A
N396        C397   1.346       .  A
C397        C398   1.381       .  A
C397        H400   1.082       .  S
C398        C399   1.382       .  A
C398        C509   1.469       .  S
C399        H401   1.082       .  S
N402        N403   1.318       .  A
N402        C406   1.351       .  A
N403        C404   1.337       .  A
C404        C405   1.381       .  A
C404        H407   1.082       .  S
C405        C406   1.392       .  A
C405        C680   1.484       .  S
C406        H408   1.082       .  S
N409        N410   1.320       .  A
N409        C413   1.340       .  A
N409       Cu417   2.064       .  S
N410        C411   1.349       .  A
N410       Cu416   2.075       .  S
C411        C412   1.387       .  A
C411        H414   1.082       .  S
C412        C413   1.383       .  A
C412        C669   1.481       .  S
C413        H415   1.082       .  S
Cu416       N419   2.077       .  S
Cu417       N427   2.062       .  S
Cu418       N420   2.085       .  S
Cu418       N426   2.083       .  S
N419        N420   1.325       .  A
N419        C423   1.345       .  A
N420        C421   1.346       .  A
C421        C422   1.383       .  A
C421        H424   1.082       .  S
C422        C423   1.381       .  A
C422        C510   1.469       .  S
C423        H425   1.082       .  S
N426        N427   1.320       .  A
N426        C430   1.350       .  A
N427        C428   1.340       .  A
C428        C429   1.384       .  A
C428        H431   1.081       .  S
C429        C430   1.391       .  A
C429        C708   1.488       .  S
C430        H432   1.082       .  S
N433        N434   1.320       .  A
N433        C437   1.339       .  A
N433       Cu441   2.057       .  S
N434        C435   1.351       .  A
N434       Cu440   2.086       .  S
C435        C436   1.392       .  A
C435        H438   1.082       .  S
C436        C437   1.382       .  A
C436        C666   1.486       .  S
C437        H439   1.082       .  S
Cu440       N443   2.088       .  S
Cu441       N451   2.057       .  S
Cu442       N444   2.080       .  S
Cu442       N450   2.078       .  S
N443        N444   1.326       .  A
N443        C447   1.347       .  A
N444        C445   1.345       .  A
C445        C446   1.381       .  A
C445        H448   1.082       .  S
C446        C447   1.383       .  A
C446        C482   1.470   1_455  S
C447        H449   1.082       .  S
N450        N451   1.320       .  A
N450        C454   1.350       .  A
N451        C452   1.339       .  A
C452        C453   1.381       .  A
C452        H455   1.082       .  S
C453        C454   1.389       .  A
C453        C683   1.479       .  S
C454        H456   1.082       .  S
O457       Cu465   2.007       .  S
O457        C467   1.278       .  A
O458       Cu465   2.009       .  S
O458        C468   1.278       .  A
O459       Cu465   2.008       .  S
O459        C469   1.276       .  A
O460        C470   1.276       .  A
O461        C470   1.278       .  A
O462       Cu466   2.010       .  S
O462        C469   1.277       .  A
O463       Cu466   2.005       .  S
O463        C468   1.277       .  A
O464       Cu466   2.003       .  S
O464        C467   1.277       .  A
Cu465      Cu466   2.378       .  S
C467        C574   1.465       .  S
C468        C526   1.467       .  S
C469        C483   1.459       .  S
C470        C484   1.460       .  S
O471       Cu479   2.008       .  S
O471        C481   1.278       .  A
O472       Cu479   2.010       .  S
O472        C482   1.278       .  A
O473       Cu479   2.008       .  S
O473        C483   1.276       .  A
O474       Cu479   2.009       .  S
O474        C484   1.276       .  A
O475       Cu480   2.013       .  S
O475        C484   1.277       .  A
O476       Cu480   2.011       .  S
O476        C483   1.277       .  A
O477       Cu480   2.012       .  S
O477        C482   1.278       .  A
O478       Cu480   2.010       .  S
O478        C481   1.277       .  A
Cu479      Cu480   2.378       .  S
O485       Cu493   2.007       .  S
O485        C495   1.277       .  A
O486       Cu493   2.005       .  S
O486        C496   1.277       .  A
O487       Cu493   2.010       .  S
O487        C497   1.277   1_565  A
O488        C498   1.276       .  A
O489        C498   1.277   1_545  A
O490       Cu494   2.010       .  S
O490        C497   1.277       .  A
O491       Cu494   2.008       .  S
O491        C496   1.277   1_545  A
O492       Cu494   2.008       .  S
O492        C495   1.277   1_545  A
Cu493      Cu494   2.378   1_565  S
C495        C550   1.467       .  S
C496        C598   1.466       .  S
C497        C511   1.459       .  S
C498        C512   1.459       .  S
O499       Cu507   2.011       .  S
O499        C509   1.278       .  A
O500       Cu507   2.010   1_545  S
O500        C510   1.278       .  A
O501       Cu507   2.011   1_545  S
O501        C511   1.277       .  A
O502       Cu507   2.007       .  S
O502        C512   1.276       .  A
O503       Cu508   2.012       .  S
O503        C512   1.277       .  A
O504       Cu508   2.010   1_545  S
O504        C511   1.277       .  A
O505       Cu508   2.010   1_545  S
O505        C510   1.277       .  A
O506       Cu508   2.010       .  S
O506        C509   1.278       .  A
Cu507      Cu508   2.378       .  S
N513        N514   1.317       .  A
N513        C517   1.335       .  A
N513       Cu521   2.047       .  S
N514        C515   1.351       .  A
N514       Cu520   2.085       .  S
C515        C516   1.397       .  A
C515        H518   1.080       .  S
C516        C517   1.386       .  A
C516        C641   1.496       .  S
C517        H519   1.081       .  S
Cu520       N523   2.089       .  S
Cu521       N531   2.046       .  S
Cu522       N524   2.081       .  S
Cu522       N530   2.077       .  S
N523        N524   1.327       .  A
N523        C527   1.346       .  A
N524        C525   1.345       .  A
C525        C526   1.380       .  A
C525        H528   1.082       .  S
C526        C527   1.382       .  A
C527        H529   1.082       .  S
N530        N531   1.318       .  A
N530        C534   1.351   1_655  A
N531        C532   1.336       .  A
C532        C533   1.381   1_655  A
C532        H535   1.082       .  S
C533        C534   1.390       .  A
C533        C655   1.481       .  S
C534        H536   1.082       .  S
N537        N538   1.318       .  A
N537        C541   1.335       .  A
N537       Cu545   2.043       .  S
N538        C539   1.352       .  A
N538       Cu544   2.082       .  S
C539        C540   1.393       .  A
C539        H542   1.082       .  S
C540        C541   1.381       .  A
C540        C652   1.485       .  S
C541        H543   1.082       .  S
Cu544       N547   2.086       .  S
Cu545       N555   2.043   1_565  S
Cu546       N548   2.086       .  S
Cu546       N554   2.082       .  S
N547        N548   1.328   1_565  A
N547        C551   1.345       .  A
N548        C549   1.345       .  A
C549        C550   1.381   1_545  A
C549        H552   1.082       .  S
C550        C551   1.381       .  A
C551        H553   1.082       .  S
N554        N555   1.317       .  A
N554        C558   1.351       .  A
N555        C556   1.335       .  A
C556        C557   1.382       .  A
C556        H559   1.082       .  S
C557        C558   1.394       .  A
C557        C624   1.487       .  S
C558        H560   1.081       .  S
N561        N562   1.320       .  A
N561        C565   1.338       .  A
N561       Cu569   2.060       .  S
N562        C563   1.350       .  A
N562       Cu568   2.079       .  S
C563        C564   1.391       .  A
C563        H566   1.082       .  S
C564        C565   1.384       .  A
C564        C610   1.487       .  S
C565        H567   1.082       .  S
Cu568       N571   2.082       .  S
Cu569       N579   2.060       .  S
Cu570       N572   2.072       .  S
Cu570       N578   2.069       .  S
N571        N572   1.325       .  A
N571        C575   1.345       .  A
N572        C573   1.344       .  A
C573        C574   1.379       .  A
C573        H576   1.082       .  S
C574        C575   1.382       .  A
C575        H577   1.082       .  S
N578        N579   1.320       .  A
N578        C582   1.348   1_655  A
N579        C580   1.340       .  A
C580        C581   1.382   1_655  A
C580        H583   1.082       .  S
C581        C582   1.385       .  A
C581        C627   1.476       .  S
C582        H584   1.082       .  S
N585        N586   1.320       .  A
N585        C589   1.340       .  A
N585       Cu593   2.061       .  S
N586        C587   1.349       .  A
N586       Cu592   2.073       .  S
C587        C588   1.386       .  A
C587        H590   1.082       .  S
C588        C589   1.382       .  A
C588        C638   1.479       .  S
C589        H591   1.082       .  S
Cu592       N595   2.075       .  S
Cu593       N603   2.061   1_565  S
Cu594       N596   2.080       .  S
Cu594       N602   2.078       .  S
N595        N596   1.325   1_565  A
N595        C599   1.344       .  A
N596        C597   1.345       .  A
C597        C598   1.382   1_545  A
C597        H600   1.082       .  S
C598        C599   1.380       .  A
C599        H601   1.082       .  S
N602        N603   1.320       .  A
N602        C606   1.350       .  A
N603        C604   1.339       .  A
C604        C605   1.383       .  A
C604        H607   1.082       .  S
C605        C606   1.388       .  A
C605        C613   1.483       .  S
C606        H608   1.082       .  S
C609        C614   1.397       .  A
C609        H616   1.083       .  S
C610        C611   1.417       .  A
C611        C612   1.409       .  A
C611        N618   1.435       .  S
C612        C613   1.405       .  A
C612        H617   1.084       .  S
C614        N615   1.438       .  S
N615        O619   1.263       .  A
N618        O622   1.263       .  A
C623        C624   1.406       .  A
C623        C628   1.397       .  A
C623        H630   1.083       .  S
C625        C626   1.408       .  A
C625        N632   1.434       .  S
C626        H631   1.084       .  S
C627        C628   1.411       .  A
C628        N629   1.440       .  S
N629        O633   1.263   1_455  A
N629        O634   1.263   1_455  A
N632        O635   1.262       .  A
C637        C642   1.409       .  A
C637        H644   1.084       .  S
C638        C639   1.411       .  A
C639        N646   1.438       .  S
C640        H645   1.081       .  S
C642        N643   1.432       .  S
N643        O648   1.262       .  A
N646        O649   1.263       .  A
C651        C656   1.394       .  A
C651        H658   1.083       .  S
C652        C653   1.416       .  A
C653        C654   1.410       .  A
C653        N660   1.435       .  S
C654        C655   1.405       .  A
C654        H659   1.084       .  S
C656        N657   1.438       .  S
N657        O662   1.262   1_455  A
N660        O663   1.262       .  A
C665        C666   1.404       .  A
C665        C670   1.399       .  A
C665        H672   1.083       .  S
C666        C667   1.417       .  A
C667        C668   1.409       .  A
C667        N674   1.436       .  S
C668        C669   1.404       .  A
C668        H673   1.084       .  S
C669        C670   1.413       .  A
C670        N671   1.439       .  S
N671        O675   1.263       .  A
N671        O676   1.263       .  A
N674        O677   1.262       .  A
N674        O678   1.263       .  A
C679        C680   1.406       .  A
C679        C684   1.411       .  A
C679        H686   1.083       .  S
C680        C681   1.415       .  A
C681        C682   1.397       .  A
C681        N688   1.438       .  S
C682        C683   1.401       .  A
C682        H687   1.084       .  S
C683        C684   1.416       .  A
C684        N685   1.438       .  S
N685        O689   1.263       .  A
N685        O690   1.262       .  A
N688        O691   1.263       .  A
N688        O692   1.263       .  A
C693        C694   1.406       .  A
C693        C698   1.397       .  A
C693        H700   1.082       .  S
C694        C695   1.417       .  A
C695        C696   1.409       .  A
C695        N702   1.434       .  S
C696        C697   1.404       .  A
C696        H701   1.084       .  S
C697        C698   1.411       .  A
C698        N699   1.439       .  S
N699        O703   1.263       .  A
N699        O704   1.263       .  A
N702        O705   1.262       .  A
N702        O706   1.262       .  A
C707        C708   1.406       .  A
C707        C712   1.410       .  A
C707        H714   1.084       .  S
C708        C709   1.415       .  A
C709        C710   1.397       .  A
C709        N716   1.436       .  S
C710        C711   1.406       .  A
C710        H715   1.081       .  S
C711        C712   1.418       .  A
C712        N713   1.433       .  S
N713        O717   1.262       .  A
N713        O718   1.262       .  A
N716        O719   1.263       .  A
N716        O720   1.263       .  A
