geometry optimzed in LAMMPS
_audit_creation_date              2020-12-01 
_audit_creation_method            'lammps2cif' 
_symmetry_space_group_name_H-M    'P1' 
_symmetry_Int_Tables_number       1 
_symmetry_cell_setting            triclinic 
loop_ 
_symmetry_equiv_pos_as_xyz 
  x,y,z 
_cell_length_a                    47.55710215 
_cell_length_b                    47.76301458100646 
_cell_length_c                    36.69364376403681 
_cell_angle_alpha                 90.29319627143282 
_cell_angle_beta                  89.47413116011501 
_cell_angle_gamma                 125.3803814635333 
loop_ 
_atom_site_label 
_atom_site_type_symbol 
_atom_site_fract_x 
_atom_site_fract_y 
_atom_site_fract_z 
_atom_site_charge 
C1          C  0.52974083  0.84843989  0.99987108     0.80600
N2          N  0.52493216  0.85879420  0.46752629    -0.77700
C3          C  0.52218926  0.88554567  0.46614493     0.83000
N4          N  0.52427545  0.90181963  0.49748413    -0.77700
C5          C  0.52875611  0.89153602  0.02997394     0.83100
N6          N  0.53183871  0.86502328  0.03098099    -0.79400
C7          C  0.30921231  0.92843787  0.00053792     0.80600
N8          N  0.32598879  0.93878008  0.46800637    -0.77700
C9          C  0.36065305  0.96172815  0.46579363     0.83000
N10         N  0.37950588  0.97421438  0.49663182    -0.77700
C11         C  0.36343465  0.96382010  0.02955124     0.83100
N12         N  0.32852031  0.94112300  0.03128064    -0.79400
N13         N  0.62041522  0.09835036  0.29607052    -0.05800
N14         N  0.63877835  0.11664359  0.32453002    -0.57900
N15         N  0.62062797  0.07090430  0.21275077    -0.05500
N16         N  0.63965596  0.07006127  0.18705085    -0.60000
N17         N  0.62466638  0.10053614  0.21248462    -0.05100
N18         N  0.64632142  0.12029042  0.18637945    -0.57900
N19         N  0.61598913  0.06848495  0.29591715    -0.04700
N20         N  0.63134907  0.06588783  0.32417574    -0.60400
C21         C  0.64541459  0.09610933  0.34180562     0.96400
C22         C  0.65571466  0.10109099  0.17073952     0.96200
N23         N  0.52257380  0.97826858  0.20727966    -0.06000
N24         N  0.50958259  0.95762528  0.17886471    -0.58500
N25         N  0.55156906  0.99152259  0.29229334    -0.04100
N26         N  0.55944578  0.97964385  0.31976377    -0.59700
N27         N  0.51801141  0.97592675  0.29074937    -0.06000
N28         N  0.50230506  0.95309725  0.31716751    -0.58700
N29         N  0.55620522  0.99424257  0.20848291    -0.03700
N30         N  0.56691509  0.98499055  0.18065626    -0.59800
Mn31       Mn  0.58679787  0.03088262  0.25240226     1.18400
C32         C  0.53749224  0.96211167  0.16260627     0.98500
C33         C  0.52850206  0.95573337  0.33499636     0.99100
N34         N  0.57542796  0.12484070  0.20975153    -0.06000
N35         N  0.59036408  0.14809451  0.18349559    -0.62300
N36         N  0.53744595  0.10582386  0.29206944    -0.04800
N37         N  0.52628608  0.11449277  0.31991677    -0.63000
N38         N  0.57110032  0.12201908  0.29355123    -0.05500
N39         N  0.58363953  0.14223032  0.32236502    -0.62600
N40         N  0.54177595  0.10858517  0.20861313    -0.04400
N41         N  0.53307185  0.12017206  0.18172005    -0.63300
Mn42       Mn  0.59894565  0.11269261  0.25289428     1.10700
C43         C  0.56348705  0.14485211  0.16627391     0.99700
C44         C  0.55537398  0.13721418  0.33844448     0.99800
N45         N  0.46872400  0.99966563  0.28801858    -0.05500
N46         N  0.44698186  0.97994469  0.31415086    -0.60900
N47         N  0.47820825  0.03204420  0.20455339    -0.04800
N48         N  0.46284585  0.03460025  0.17630269    -0.57600
N49         N  0.47405176  0.00234859  0.20421066    -0.06200
N50         N  0.45600328  0.98419451  0.17558408    -0.60500
N51         N  0.47308069  0.02941480  0.28794419    -0.05100
N52         N  0.45430550  0.03041415  0.31383457    -0.57700
Mn53       Mn  0.49490286  0.98790286  0.24762061     1.20200
Mn54       Mn  0.50700857  0.06933893  0.24829560     1.10100
Cl55       Cl  0.54695717  0.05022907  0.25033511    -0.85600
C56         C  0.43788276  0.99930896  0.33009908     0.96700
C57         C  0.44908843  0.00454230  0.15837055     0.96500
C58         C  0.54562822  0.24062000  0.50018448     0.80600
N59         N  0.54677981  0.22577784  0.46917508    -0.77700
C60         C  0.55475736  0.20279129  0.47056475     0.83000
N61         N  0.56091025  0.19415507  0.50312689    -0.77700
C62         C  0.55991291  0.20902294  0.03434176     0.83100
N63         N  0.55225179  0.23239625  0.03272035    -0.79400
C64         C  0.78031159  0.18606433  0.99953789     0.80600
N65         N  0.76088623  0.17125095  0.46914062    -0.77700
C66         C  0.72830903  0.14221068  0.47213357     0.83000
N67         N  0.71463869  0.12921999  0.50558475    -0.77700
C68         C  0.73391445  0.14414775  0.03596783     0.83100
N69         N  0.76666757  0.17251227  0.03268391    -0.79400
N70         N  0.06949000  0.63368388  0.29725725    -0.05800
N71         N  0.06922200  0.65077422  0.32533021    -0.57900
N72         N  0.09782260  0.63701165  0.21290641    -0.05500
N73         N  0.11749091  0.65619207  0.18526441    -0.60000
N74         N  0.06935751  0.63557771  0.21409208    -0.05100
N75         N  0.06903853  0.65372662  0.18741791    -0.57900
N76         N  0.09785548  0.63495452  0.29685047    -0.04700
N77         N  0.11732077  0.65281419  0.32502166    -0.60400
C78         C  0.09905514  0.66250408  0.34267560     0.96400
C79         C  0.09916272  0.66643168  0.16969145     0.96200
N80         N  0.09495434  0.54791443  0.20914999    -0.06000
N81         N  0.10260678  0.53637265  0.18087481    -0.58500
N82         N  0.11457288  0.58019039  0.29325360    -0.04100
N83         N  0.13693352  0.59186824  0.32013107    -0.59700
N84         N  0.09541035  0.54645319  0.29261452    -0.06000
N85         N  0.10425188  0.53446109  0.31903142    -0.58700
N86         N  0.11415415  0.58168446  0.20932165    -0.03700
N87         N  0.13544908  0.59384446  0.18095617    -0.59800
Mn88       Mn  0.10746058  0.60949642  0.25304872     1.18400
C89         C  0.12781556  0.56515552  0.16347080     0.98500
C90         C  0.13020609  0.56303398  0.33600359     0.99100
N91         N  0.98982024  0.57713131  0.21426750    -0.06000
N92         N  0.98002407  0.58899358  0.18868671    -0.62300
N93         N  0.97112223  0.54160808  0.29717298    -0.04800
N94         N  0.94855760  0.52894114  0.32435933    -0.63000
N95         N  0.99013614  0.57535040  0.29779900    -0.05500
N96         N  0.98096741  0.58633201  0.32534141    -0.62600
N97         N  0.97083427  0.54343814  0.21347054    -0.04400
N98         N  0.94774262  0.53183884  0.18734177    -0.63300
Mn99       Mn  0.02958210  0.60619593  0.25584719     1.10700
C100        C  0.95354399  0.56051671  0.17195452     0.99700
C101        C  0.95501241  0.55718899  0.34176279     0.99800
N102        N  0.01616113  0.48795305  0.29283662    -0.05500
N103        N  0.01611641  0.46945730  0.31939670    -0.60900
N104        N  0.98776799  0.48862509  0.21009958    -0.04800
N105        N  0.96796064  0.47061949  0.18225442    -0.57600
N106        N  0.01600419  0.48963494  0.20954056    -0.06200
N107        N  0.01599437  0.47229067  0.18147334    -0.60500
N108        N  0.98784771  0.48677031  0.29387772    -0.05100
N109        N  0.96797113  0.46750965  0.32131082    -0.57700
Mn110      Mn  0.05584036  0.51726306  0.25107343     1.20200
Mn111      Mn  0.97821512  0.51416855  0.25362671     1.10100
Cl112      Cl  0.04279146  0.56180755  0.25336558    -0.85600
C113        C  0.98592652  0.45687461  0.33695454     0.96700
C114        C  0.98591749  0.46060028  0.16471643     0.96500
C115        C  0.22171351  0.53814713  0.00182734     0.80600
N116        N  0.21214834  0.54345120  0.46935604    -0.77700
C117        C  0.19096417  0.55384438  0.46794171     0.83000
N118        N  0.17939841  0.55867478  0.99936625    -0.77700
C119        C  0.18902819  0.55389747  0.03205051     0.83100
N120        N  0.21016375  0.54344269  0.03332158    -0.79400
C121        C  0.90153771  0.32523480  0.00325381     0.80600
N122        N  0.91328849  0.34329307  0.03484775    -0.77700
C123        C  0.93784551  0.37771503  0.03388220     0.83000
N124        N  0.95003104  0.39385786  0.00133467    -0.77700
C125        C  0.93831341  0.37620158  0.46961599     0.83100
N126        N  0.91381010  0.34185162  0.47070884    -0.79400
C127        C  0.85225486  0.57133649  0.00632630     0.80600
N128        N  0.86459753  0.56733721  0.47442582    -0.77700
C129        C  0.88988450  0.56216685  0.47470358     0.83000
N130        N  0.90262562  0.56096698  0.00730272    -0.77700
C131        C  0.89013633  0.56453266  0.03910896     0.83100
N132        N  0.86496705  0.56973013  0.03856291    -0.79400
C133        C  0.17454776  0.79930574  0.00442156     0.80600
N134        N  0.16258671  0.78143767  0.03627251    -0.77700
C135        C  0.13947285  0.74667910  0.03659701     0.83000
N136        N  0.12831891  0.72954026  0.00449214    -0.77700
C137        C  0.14035341  0.74686064  0.47267738     0.83100
N138        N  0.16363711  0.78141503  0.47288769    -0.79400
N139        N  0.48536157  0.45622959  0.20782262    -0.05800
N140        N  0.46973078  0.43413574  0.18078201    -0.57900
N141        N  0.51760132  0.46924353  0.29177349    -0.05500
N142        N  0.52505360  0.45736423  0.31957514    -0.60000
N143        N  0.48450010  0.45629087  0.29169916    -0.05100
N144        N  0.46866967  0.43508888  0.31955181    -0.57900
N145        N  0.51832502  0.46883295  0.20813118    -0.04700
N146        N  0.52579974  0.45567351  0.18128357    -0.60400
C147        C  0.49530071  0.43402866  0.16438814     0.96400
C148        C  0.49440485  0.43611542  0.33658819     0.96200
N149        N  0.59666112  0.57450687  0.29180311    -0.06000
N150        N  0.61899840  0.59250423  0.31804136    -0.58500
N151        N  0.58751541  0.54255437  0.20795507    -0.04100
N152        N  0.60094658  0.53710664  0.17959792    -0.59700
N153        N  0.59629095  0.57421523  0.20768957    -0.06000
N154        N  0.61591832  0.59096511  0.17897567    -0.58700
N155        N  0.58773889  0.54281813  0.29185375    -0.03700
N156        N  0.60368985  0.53861716  0.31819984    -0.59800
Mn157      Mn  0.55333652  0.50543750  0.24999872     1.18400
C158        C  0.62322381  0.56980927  0.33440593     0.98500
C159        C  0.61857443  0.56743156  0.16169937     0.99100
N160        N  0.44260236  0.48886800  0.29066542    -0.06000
N161        N  0.42023993  0.47117654  0.31724464    -0.62300
N162        N  0.45342440  0.52134882  0.20720846    -0.04800
N163        N  0.43985901  0.52686225  0.17943843    -0.63000
N164        N  0.44414623  0.48949091  0.20697561    -0.05500
N165        N  0.42377787  0.47252927  0.17900060    -0.62600
N166        N  0.45183958  0.52065336  0.29068461    -0.04400
N167        N  0.43625203  0.52532659  0.31732232    -0.63300
Mn168      Mn  0.46301437  0.47149491  0.24929174     1.10700
C169        C  0.41647791  0.49430484  0.33368627     0.99700
C170        C  0.42141890  0.49627209  0.16221475     0.99800
N171        N  0.55561362  0.60774381  0.20850452    -0.05500
N172        N  0.57191749  0.63012085  0.18172780    -0.60900
N173        N  0.52124166  0.59391519  0.29208235    -0.04800
N174        N  0.51310524  0.60552917  0.31994966    -0.57600
N175        N  0.55423678  0.60654170  0.29259306    -0.06200
N176        N  0.56926628  0.62713614  0.32091266    -0.60500
N177        N  0.52262643  0.59496755  0.20823775    -0.05100
N178        N  0.51575733  0.60819240  0.18125984    -0.57700
Mn179      Mn  0.57682158  0.59193650  0.25019885     1.20200
Mn180      Mn  0.48678310  0.55813954  0.24953398     1.10100
Cl181      Cl  0.51998725  0.53173846  0.24979474    -0.85600
C182        C  0.54670105  0.63017671  0.16490625     0.96700
C183        C  0.54323395  0.62619415  0.33772841     0.96500
C184        C  0.49880077  0.32853678  0.99652078     0.80600
N185        N  0.49478725  0.33921747  0.02927177    -0.77700
C186        C  0.48783974  0.36304625  0.03123384     0.83000
N187        N  0.48511292  0.37612005  0.99981714    -0.77700
C188        C  0.48876870  0.36532980  0.46699976     0.83100
N189        N  0.49609077  0.34174691  0.46532788    -0.79400
C190        C  0.30736912  0.48874380  0.00251789     0.80600
N191        N  0.32279298  0.48844564  0.03333800    -0.77700
C192        C  0.34779244  0.48296807  0.03129434     0.83000
N193        N  0.35807297  0.47908717  0.99820936    -0.77700
C194        C  0.34292778  0.47962113  0.46740015     0.83100
N195        N  0.31744565  0.48436025  0.46976598    -0.79400
C196        C  0.74092691  0.58750854  0.00080532     0.80600
N197        N  0.72480877  0.58658621  0.03197445    -0.77700
C198        C  0.69662134  0.58706650  0.03037753     0.83000
N199        N  0.68404244  0.58750702  0.99753170    -0.77700
C200        C  0.70018948  0.58880192  0.46597171     0.83100
N201        N  0.72868814  0.58866682  0.46777577    -0.79400
C202        C  0.55346762  0.74239817  0.00004672     0.80600
N203        N  0.55590732  0.73016418  0.03231358    -0.77700
C204        C  0.55826629  0.70315815  0.03307532     0.83000
N205        N  0.55806846  0.68842666  0.00129714    -0.77700
C206        C  0.55622926  0.70088480  0.46890202     0.83100
N207        N  0.55361164  0.72770659  0.46833640    -0.79400
C208        C  0.39406108  0.48729797  0.36601479    -0.05000
C209        C  0.38042458  0.50668520  0.37142741    -0.02100
C210        C  0.36350304  0.50398864  0.40428021     0.02900
C211        C  0.35799245  0.48026047  0.43138799    -0.05000
C212        C  0.36946915  0.45914209  0.42492815    -0.02100
C213        C  0.38777863  0.46291447  0.39267635     0.02900
C214        C  0.38335631  0.52944509  0.34313554     0.37500
C215        C  0.36276471  0.43356235  0.45161780     0.37500
C216        C  0.40123393  0.44250047  0.38800659     0.35900
C217        C  0.35394536  0.52751628  0.41076375     0.35900
N218        N  0.41188160  0.42613548  0.38448727    -0.38900
N219        N  0.34657510  0.54645502  0.41583885    -0.38900
N220        N  0.35778699  0.41336186  0.97275214    -0.38300
N221        N  0.38553964  0.54758142  0.32070848    -0.38300
C222        C  0.40254677  0.49059066  0.12808372    -0.05000
C223        C  0.42084738  0.51033112  0.09701725    -0.02100
C224        C  0.40295443  0.50749713  0.06528369     0.02900
C225        C  0.36650786  0.48503441  0.06447584    -0.05000
C226        C  0.34823806  0.46498233  0.09550406    -0.02100
C227        C  0.36626835  0.46758738  0.12716086     0.02900
C228        C  0.45825309  0.53352789  0.09765158     0.37500
C229        C  0.31091689  0.44141341  0.09476454     0.37500
C230        C  0.34740952  0.44753882  0.15922576     0.35900
C231        C  0.42216647  0.52871345  0.03392854     0.35900
N232        N  0.33233161  0.43156515  0.18481434    -0.38900
N233        N  0.43742386  0.54544715  0.00881089    -0.38900
N234        N  0.28113954  0.42269726  0.09411297    -0.38300
N235        N  0.48805437  0.55199651  0.09818798    -0.38300
C236        C  0.54694784  0.64545167  0.37142345    -0.05000
C237        C  0.52202815  0.62910595  0.39969477    -0.02100
C238        C  0.52487480  0.64762119  0.43112395     0.02900
C239        C  0.55282630  0.68239973  0.43490352    -0.05000
C240        C  0.57744524  0.69895929  0.40660993    -0.02100
C241        C  0.57462280  0.68052567  0.37499919     0.02900
C242        C  0.49388895  0.59293180  0.39719947     0.37500
C243        C  0.60582589  0.73491102  0.41014875     0.36600
C244        C  0.59962504  0.69806923  0.34569648     0.35900
C245        C  0.49828523  0.63128217  0.45916417     0.35900
N246        N  0.61954125  0.71207134  0.32228990    -0.38900
N247        N  0.47666001  0.61876048  0.98110359    -0.38900
N248        N  0.62839639  0.76362669  0.41291653    -0.38300
N249        N  0.47140971  0.56408411  0.39557574    -0.38300
C250        C  0.55758754  0.68747411  0.06825748    -0.05000
C251        C  0.53256857  0.67972933  0.09512015    -0.02100
C252        C  0.53065264  0.66309240  0.12762606     0.02900
C253        C  0.55189684  0.65151498  0.13250410    -0.05000
C254        C  0.57705733  0.65942254  0.10559791    -0.02100
C255        C  0.58047996  0.67815200  0.07418882     0.02900
C256        C  0.50726227  0.68693042  0.08856927     0.37500
C257        C  0.59853626  0.64708628  0.10904712     0.37500
C258        C  0.60791305  0.68813935  0.04808694     0.35900
C259        C  0.50721442  0.65878027  0.15632352     0.35900
N260        N  0.62990371  0.69627402  0.02738599    -0.38900
N261        N  0.48869646  0.65566891  0.17922250    -0.38900
N262        N  0.61563005  0.63717879  0.11146115    -0.38300
N263        N  0.48686998  0.69233556  0.08321015    -0.38300
C264        C  0.68448860  0.58725142  0.43022443    -0.05000
C265        C  0.68072236  0.56472027  0.40237859    -0.02100
C266        C  0.66204926  0.56022771  0.37052047     0.02900
C267        C  0.64640043  0.57780951  0.36614913    -0.05000
C268        C  0.65230346  0.60218411  0.39285824    -0.02100
C269        C  0.67103483  0.60669929  0.42469627     0.02900
C270        C  0.69475438  0.54486096  0.40686477     0.37500
C271        C  0.63862840  0.62235482  0.38835657     0.37500
C272        C  0.67656938  0.63168876  0.45177362     0.35900
C273        C  0.65984959  0.53798690  0.34184847     0.35900
N274        N  0.68085825  0.65150658  0.47341289    -0.38900
N275        N  0.65829114  0.52033744  0.31901309    -0.38900
N276        N  0.62809343  0.63878141  0.38488757    -0.38300
N277        N  0.70598717  0.52905871  0.41028811    -0.38300
C278        C  0.67698954  0.58268523  0.06389373    -0.05000
C279        C  0.69064990  0.60893879  0.09026759    -0.02100
C280        C  0.67117845  0.60456344  0.12176380     0.02900
C281        C  0.63813185  0.57355671  0.12728009    -0.05000
C282        C  0.62447955  0.54746073  0.10044323    -0.02100
C283        C  0.64403873  0.55192510  0.06917452     0.02900
C284        C  0.72483178  0.64036478  0.08506027     0.37500
C285        C  0.58983663  0.51629269  0.10410620     0.37500
C286        C  0.63094335  0.52419972  0.04300515     0.35900
C287        C  0.68569651  0.63167415  0.14883120     0.35900
N288        N  0.62111272  0.50223399  0.02210413    -0.38900
N289        N  0.69723668  0.65336863  0.17035364    -0.38900
N290        N  0.56219395  0.49139350  0.10650861    -0.38300
N291        N  0.75217830  0.66536959  0.08102171    -0.38300
C292        C  0.48918207  0.38294299  0.43359622    -0.05000
C293        C  0.51143855  0.41917409  0.43168570    -0.02100
C294        C  0.51195668  0.43647853  0.40051326     0.02900
C295        C  0.49056611  0.41773520  0.37067455    -0.05000
C296        C  0.46794072  0.38156256  0.37259996    -0.02100
C297        C  0.46740513  0.36415665  0.40393519     0.02900
C298        C  0.53498706  0.43873868  0.46125346     0.37500
C299        C  0.44614162  0.36220151  0.34185265     0.37500
C300        C  0.44434677  0.32699329  0.40568751     0.35900
C301        C  0.53426039  0.47377007  0.39943312     0.35900
N302        N  0.42600416  0.29732777  0.40697937    -0.38900
N303        N  0.55197198  0.50347990  0.39867500    -0.38900
N304        N  0.42878201  0.34679754  0.31727797    -0.38300
N305        N  0.55420692  0.45412003  0.98448900    -0.38300
C306        C  0.49083452  0.41299573  0.13181133    -0.05000
C307        C  0.46766999  0.40697708  0.10383036    -0.02100
C308        C  0.46542974  0.38914389  0.07191353     0.02900
C309        C  0.48682397  0.37760910  0.06710052    -0.05000
C310        C  0.50886200  0.38232166  0.09595563    -0.02100
C311        C  0.51064965  0.39967517  0.12805160     0.02900
C312        C  0.44698714  0.42032069  0.10687344     0.37500
C313        C  0.53083681  0.37046710  0.09275994     0.37500
C314        C  0.53283439  0.40335070  0.15743850     0.35900
C315        C  0.44063108  0.38250316  0.04421277     0.35900
N316        N  0.55058648  0.40621566  0.18072349    -0.38900
N317        N  0.42089859  0.37736582  0.02217673    -0.38900
N318        N  0.54834130  0.36097142  0.09079055    -0.38300
N319        N  0.43042210  0.43087945  0.10908456    -0.38300
C320        C  0.82407250  0.57591673  0.00584313    -0.05000
C321        C  0.78998283  0.54780875  0.01369039    -0.02100
C322        C  0.76281370  0.55171426  0.01218377     0.02900
C323        C  0.76963549  0.58373215  0.00263100    -0.05000
C324        C  0.80395438  0.61199837  0.49581169    -0.02100
C325        C  0.83112765  0.60808093  0.49792671     0.02900
C326        C  0.78292934  0.51483506  0.02319337     0.37500
C327        C  0.81123920  0.64526162  0.48751055     0.37500
C328        C  0.86657056  0.63767713  0.49361791     0.35900
C329        C  0.72771397  0.52261022  0.01983932     0.35900
N330        N  0.89487476  0.66138282  0.49065899    -0.38900
N331        N  0.69971024  0.49942582  0.02595122    -0.38900
N332        N  0.81694180  0.67176146  0.48087880    -0.38300
N333        N  0.77749448  0.48863519  0.03085128    -0.38300
C334        C  0.24333711  0.52521620  0.00288047    -0.05000
C335        C  0.22824317  0.48984263  0.99811831    -0.02100
C336        C  0.24905184  0.47760072  0.99849104     0.02900
C337        C  0.28489127  0.50070584  0.00384660    -0.05000
C338        C  0.29981752  0.53603592  0.50820429    -0.02100
C339        C  0.27908285  0.54828288  0.50771230     0.02900
C340        C  0.19134292  0.46613699  0.99267109     0.37500
C341        C  0.33694335  0.56001713  0.51176785     0.37500
C342        C  0.29476512  0.58479136  0.51088100     0.35900
C343        C  0.23369048  0.44134217  0.99330443     0.35900
N344        N  0.30726245  0.61392960  0.51317160    -0.38900
N345        N  0.22142594  0.41240873  0.98913255    -0.38900
N346        N  0.36657658  0.57898225  0.51441152    -0.38300
N347        N  0.16190797  0.44728589  0.98826027    -0.38300
C348        C  0.90416180  0.56309527  0.07428743    -0.05000
C349        C  0.92559790  0.59322644  0.09474942    -0.02100
C350        C  0.94031172  0.59224169  0.12752864     0.02900
C351        C  0.93424237  0.56091032  0.13986569    -0.05000
C352        C  0.91003990  0.53018173  0.12055149    -0.02100
C353        C  0.89546294  0.53148867  0.08782327     0.02900
C354        C  0.93270663  0.62545055  0.08181701     0.37500
C355        C  0.89897320  0.49678010  0.13424897     0.37500
C356        C  0.87039032  0.49999875  0.06863265     0.35900
C357        C  0.96071098  0.62361298  0.14867681     0.35900
N358        N  0.85010831  0.47477996  0.05369885    -0.38900
N359        N  0.97676613  0.64874707  0.16539772    -0.38900
N360        N  0.88976118  0.46995213  0.14496027    -0.38300
N361        N  0.93823405  0.65107439  0.07154153    -0.38300
C362        C  0.93608491  0.55669744  0.37471076    -0.05000
C363        C  0.92842738  0.58113406  0.37852351    -0.02100
C364        C  0.91286472  0.58253534  0.41077662     0.02900
C365        C  0.90454255  0.55939619  0.43974811    -0.05000
C366        C  0.91098849  0.53408324  0.43530519    -0.02100
C367        C  0.92658302  0.53270159  0.40301048     0.02900
C368        C  0.93584202  0.60460428  0.34891061     0.37500
C369        C  0.90106684  0.50878270  0.46358053     0.37500
C370        C  0.93372102  0.50706193  0.39962170     0.35900
C371        C  0.90650614  0.60871772  0.41423408     0.35900
N372        N  0.93924770  0.48650004  0.39704296    -0.38900
N373        N  0.90141967  0.62960326  0.41655651    -0.38900
N374        N  0.89341478  0.48834104  0.48574051    -0.38300
N375        N  0.94169359  0.62334660  0.32537421    -0.38300
C376        C  0.97412140  0.43952522  0.13113904    -0.05000
C377        C  0.96118948  0.44799927  0.10198206    -0.02100
C378        C  0.94833023  0.42710788  0.07073074     0.02900
C379        C  0.94955593  0.39830091  0.06776132    -0.05000
C380        C  0.96332845  0.39030585  0.09647918    -0.02100
C381        C  0.97567894  0.41091666  0.12806404     0.02900
C382        C  0.96331428  0.47955806  0.10294978     0.37500
C383        C  0.96563950  0.36140323  0.09320394     0.37500
C384        C  0.98984708  0.40247983  0.15738265     0.35900
C385        C  0.93305065  0.43489720  0.04199190     0.35900
N386        N  0.00134952  0.39583627  0.18062473    -0.38900
N387        N  0.92077068  0.44100526  0.01911678    -0.38900
N388        N  0.96751226  0.33836814  0.09067915    -0.38300
N389        N  0.96565951  0.50506060  0.10336117    -0.38300
C390        C  0.95075940  0.39484057  0.43433497    -0.05000
C391        C  0.98620412  0.42128986  0.42935202    -0.02100
C392        C  0.99782087  0.44133219  0.39740595     0.02900
C393        C  0.97418489  0.43470209  0.36974388    -0.05000
C394        C  0.93906246  0.40718827  0.37386931    -0.02100
C395        C  0.92728520  0.38766072  0.40618005     0.02900
C396        C  0.01102615  0.42779978  0.45694644     0.37500
C397        C  0.91494430  0.39823335  0.34448443     0.37500
C398        C  0.89067265  0.36112782  0.41050522     0.35900
C399        C  0.03402058  0.46958234  0.39391960     0.35900
N400        N  0.86135178  0.34010336  0.41304108    -0.38900
N401        N  0.06292327  0.49203239  0.39144059    -0.38900
N402        N  0.89566556  0.39089507  0.32108783    -0.38300
N403        N  0.03078527  0.43310576  0.97917886    -0.38300
C404        C  0.17393872  0.55738953  0.06573569    -0.05000
C405        C  0.13775013  0.53739402  0.06993208    -0.02100
C406        C  0.12281690  0.54109184  0.10117927     0.02900
C407        C  0.14394842  0.56444293  0.12895078    -0.05000
C408        C  0.18020399  0.58505651  0.12438546    -0.02100
C409        C  0.19515311  0.58146392  0.09284390     0.02900
C410        C  0.11574130  0.51224620  0.04240388     0.37500
C411        C  0.20222794  0.60929326  0.15247348     0.37500
C412        C  0.23230785  0.60300878  0.08792003     0.35900
C413        C  0.08551650  0.52148317  0.10399450     0.35900
N414        N  0.26194478  0.62024114  0.08393791    -0.38900
N415        N  0.05577520  0.50589719  0.10584200    -0.38900
N416        N  0.21984718  0.62869873  0.17482843    -0.38300
N417        N  0.09821593  0.49215276  0.52059661    -0.38300
C418        C  0.14848723  0.56253530  0.36840075    -0.05000
C419        C  0.15851825  0.58654661  0.39688632    -0.02100
C420        C  0.17413974  0.58480552  0.42842172     0.02900
C421        C  0.17893144  0.55832987  0.43248460    -0.05000
C422        C  0.17002964  0.53507211  0.40335880    -0.02100
C423        C  0.15518450  0.53737893  0.37143441     0.02900
C424        C  0.15138254  0.61222701  0.39486105     0.37500
C425        C  0.17492868  0.50785824  0.40626349     0.37500
C426        C  0.14724072  0.51390715  0.34150895     0.35900
C427        C  0.18565279  0.61079549  0.45648351     0.35900
N428        N  0.14096328  0.49515347  0.31773294    -0.38900
N429        N  0.19511203  0.63169301  0.97867429    -0.38900
N430        N  0.17887117  0.48616369  0.40813918    -0.38300
N431        N  0.14569428  0.63270595  0.39358611    -0.38300
C432        C  0.12893337  0.72705167  0.07147598    -0.05000
C433        C  0.09464454  0.69770026  0.07657161    -0.02100
C434        C  0.08531677  0.67759758  0.10826382     0.02900
C435        C  0.10961617  0.68733253  0.13608573    -0.05000
C436        C  0.14364991  0.71685860  0.13158618    -0.02100
C437        C  0.15353990  0.73615361  0.09909943     0.02900
C438        C  0.06826945  0.68771116  0.04968822     0.37500
C439        C  0.16843921  0.72792191  0.16071316     0.37500
C440        C  0.18957400  0.76411134  0.09361541     0.35900
C441        C  0.05094881  0.64580982  0.11125113     0.35900
N442        N  0.21840811  0.78618978  0.08937894    -0.38900
N443        N  0.02367931  0.62035200  0.11326021    -0.38900
N444        N  0.18817104  0.73687557  0.18399453    -0.38300
N445        N  0.04612033  0.67918572  0.52952088    -0.38300
C446        C  0.11019571  0.68410317  0.37628179    -0.05000
C447        C  0.14565539  0.70817792  0.38438391    -0.02100
C448        C  0.15560431  0.72936577  0.41548165     0.02900
C449        C  0.13038994  0.72749111  0.43806548    -0.05000
C450        C  0.09534844  0.70508095  0.42895236    -0.02100
C451        C  0.08511555  0.68214321  0.39961045     0.02900
C452        C  0.17222432  0.71172593  0.36085789     0.37500
C453        C  0.06993135  0.70757205  0.44780458     0.37500
C454        C  0.04857722  0.65556585  0.39501334     0.35900
C455        C  0.19188859  0.75313917  0.42426793     0.35900
N456        N  0.01939426  0.63428595  0.39204677    -0.38900
N457        N  0.22078603  0.77228077  0.43126520    -0.38900
N458        N  0.04951445  0.71012251  0.46153728    -0.38300
N459        N  0.19362850  0.71469497  0.34232804    -0.38300
C460        C  0.87088967  0.28942404  0.00350555    -0.05000
C461        C  0.87344052  0.26224547  0.51085236    -0.02100
C462        C  0.84384344  0.22806819  0.50881439     0.02900
C463        C  0.81212937  0.22119397  0.99809383    -0.05000
C464        C  0.80953790  0.24869843  0.99136098    -0.02100
C465        C  0.83867993  0.28270959  0.99501872     0.02900
C466        C  0.90632290  0.26931987  0.52119122     0.37500
C467        C  0.77648298  0.24207750  0.98252124     0.37500
C468        C  0.83517289  0.31087604  0.99232520     0.35900
C469        C  0.84587187  0.19984427  0.51827095     0.35900
N470        N  0.83242685  0.33338698  0.99080570    -0.38900
N471        N  0.84730937  0.17725509  0.52605990    -0.38900
N472        N  0.75017037  0.23687815  0.97550722    -0.38300
N473        N  0.93250176  0.27486602  0.52958277    -0.38300
C474        C  0.53381926  0.26339092  0.99858197    -0.05000
C475        C  0.49921518  0.24927128  0.49015367    -0.02100
C476        C  0.48776515  0.27067011  0.48876652     0.02900
C477        C  0.51092207  0.30621763  0.99542528    -0.05000
C478        C  0.54595300  0.32045699  0.00229889    -0.02100
C479        C  0.55732609  0.29902259  0.00419569     0.02900
C480        C  0.47517770  0.21270690  0.48345906     0.37500
C481        C  0.57041585  0.35731340  0.00656747     0.37500
C482        C  0.59334726  0.31368004  0.01097593     0.35900
C483        C  0.45198488  0.25620113  0.48085018     0.35900
N484        N  0.62210224  0.32535259  0.01625783    -0.38900
N485        N  0.42343186  0.24464170  0.47450715    -0.38900
N486        N  0.58986309  0.38674192  0.00973755    -0.38300
N487        N  0.45616632  0.18353974  0.47805330    -0.38300
C488        C  0.71737365  0.13343967  0.07235557    -0.05000
C489        C  0.69739928  0.09853865  0.08240745    -0.02100
C490        C  0.67879701  0.08795449  0.11555552     0.02900
C491        C  0.67941676  0.11231298  0.13861938    -0.05000
C492        C  0.70189430  0.14769136  0.12972777    -0.02100
C493        C  0.72025213  0.15810852  0.09653607     0.02900
C494        C  0.69612657  0.07342010  0.05863470     0.37500
C495        C  0.70707757  0.17390298  0.15482949     0.37500
C496        C  0.74077766  0.19428368  0.08671305     0.35900
C497        C  0.65923429  0.05189141  0.12532945     0.35900
N498        N  0.75713899  0.22310530  0.07900763    -0.38900
N499        N  0.64402903  0.02310817  0.13294750    -0.38900
N500        N  0.71148840  0.19500759  0.17466003    -0.38300
N501        N  0.69507379  0.05338796  0.03969204    -0.38300
C502        C  0.66525526  0.10562601  0.37616922    -0.05000
C503        C  0.69122027  0.10003454  0.38041487    -0.02100
C504        C  0.71123522  0.11108504  0.41238884     0.02900
C505        C  0.70589302  0.12832783  0.43980989    -0.05000
C506        C  0.67930430  0.13292659  0.43617901    -0.02100
C507        C  0.65873226  0.12118548  0.40472707     0.02900
C508        C  0.69829682  0.08404328  0.35151695     0.37500
C509        C  0.67352903  0.15040214  0.46456730     0.37500
C510        C  0.63002154  0.12404216  0.40247303     0.35900
C511        C  0.73686724  0.10413248  0.41752102     0.35900
N512        N  0.60695815  0.12606028  0.40089779    -0.38900
N513        N  0.75708726  0.09832528  0.42189303    -0.38900
N514        N  0.66890542  0.16401151  0.98743847    -0.38300
N515        N  0.70409912  0.07135022  0.32852526    -0.38300
C516        C  0.56412614  0.19695226  0.06997156    -0.05000
C517        C  0.58866723  0.18927295  0.07365313    -0.02100
C518        C  0.58936582  0.17324972  0.10554263     0.02900
C519        C  0.56613549  0.16551027  0.13449085    -0.05000
C520        C  0.54323517  0.17528820  0.13181466    -0.02100
C521        C  0.54172484  0.19024141  0.09955967     0.02900
C522        C  0.61322715  0.19757315  0.04453520     0.37500
C523        C  0.52099168  0.17004507  0.16234368     0.37500
C524        C  0.51542287  0.19655851  0.09634363     0.35900
C525        C  0.61275660  0.16305602  0.10749813     0.35900
N526        N  0.49432944  0.20141532  0.09384849    -0.38900
N527        N  0.63133556  0.15483850  0.10889483    -0.38900
N528        N  0.50324189  0.16590968  0.18661560    -0.38300
N529        N  0.63301867  0.20418049  0.52151609    -0.38300
C530        C  0.55597101  0.15401838  0.37254563    -0.05000
C531        C  0.53446432  0.13391070  0.40203550    -0.02100
C532        C  0.53394277  0.14990770  0.43407570     0.02900
C533        C  0.55528225  0.18606493  0.43692663    -0.05000
C534        C  0.57723315  0.20615350  0.40768172    -0.02100
C535        C  0.57762935  0.19014470  0.37554958     0.02900
C536        C  0.51401139  0.09670714  0.40009027     0.37500
C537        C  0.59993409  0.24327637  0.41092128     0.37500
C538        C  0.59976326  0.21093600  0.34529761     0.35900
C539        C  0.51075286  0.12914078  0.46373776     0.35900
N540        N  0.61743929  0.22752546  0.32118669    -0.38900
N541        N  0.49200078  0.11291296  0.98731425    -0.38900
N542        N  0.61801669  0.27287043  0.41357035    -0.38300
N543        N  0.49802943  0.06705713  0.39874354    -0.38300
C544        C  0.27083905  0.90057543  0.00227143    -0.05000
C545        C  0.25129643  0.88669945  0.47003897    -0.02100
C546        C  0.21831589  0.85515148  0.47092133     0.02900
C547        C  0.20379476  0.83710962  0.00403786    -0.05000
C548        C  0.21977532  0.85525173  0.03677803    -0.02100
C549        C  0.25332440  0.88624330  0.03602126     0.02900
C550        C  0.26426344  0.90440728  0.43529805     0.37500
C551        C  0.20161870  0.84308387  0.07146038     0.37500
C552        C  0.26910192  0.90297334  0.07043720     0.35900
C553        C  0.19922288  0.84196700  0.43708662     0.35900
N554        N  0.28132139  0.91600691  0.09809093    -0.38900
N555        N  0.18426344  0.83172238  0.40997414    -0.38900
N556        N  0.18727662  0.83385660  0.09921256    -0.38300
N557        N  0.27432015  0.91827455  0.40748214    -0.38300
C558        C  0.38441501  0.97453874  0.06319732    -0.05000
C559        C  0.37860679  0.94958027  0.08868116    -0.02100
C560        C  0.39937041  0.95941177  0.11988511     0.02900
C561        C  0.42720960  0.99422521  0.12528845    -0.05000
C562        C  0.43353500  0.01907970  0.09921786    -0.02100
C563        C  0.41165389  0.00937783  0.06891404     0.02900
C564        C  0.35201980  0.91340562  0.08230607     0.37500
C565        C  0.46340593  0.05447761  0.10240597     0.37500
C566        C  0.41659840  0.03555843  0.04424910     0.35900
C567        C  0.39130417  0.93340007  0.14664395     0.35900
N568        N  0.42050472  0.05686172  0.52520310    -0.38900
N569        N  0.38475898  0.91255758  0.16787943    -0.38900
N570        N  0.48732015  0.08267453  0.10453885    -0.38300
N571        N  0.33090436  0.88455437  0.07728742    -0.38300
C572        C  0.41459692  0.98860377  0.36281830    -0.05000
C573        C  0.41119804  0.01262608  0.38180142    -0.02100
C574        C  0.39316655  0.00358118  0.41528480     0.02900
C575        C  0.37800365  0.97062968  0.42994290    -0.05000
C576        C  0.37891280  0.94585503  0.41015130    -0.02100
C577        C  0.39641155  0.95444560  0.37640344     0.02900
C578        C  0.42554839  0.04664141  0.36728613     0.37500
C579        C  0.36250817  0.91158381  0.42508312     0.37500
C580        C  0.39445019  0.92743292  0.35561220     0.35900
C581        C  0.38953856  0.02802923  0.43441542     0.35900
N582        N  0.39252064  0.90564588  0.33915261    -0.38900
N583        N  0.38645550  0.04749521  0.44939105    -0.38900
N584        N  0.34952687  0.88432959  0.43706944    -0.38300
N585        N  0.43674873  0.07381418  0.35600740    -0.38300
C586        C  0.53536739  0.82099554  0.00072494    -0.05000
C587        C  0.56571945  0.82748436  0.01628536    -0.02100
C588        C  0.57189668  0.80195218  0.01558010     0.02900
C589        C  0.54760129  0.76964861  0.99977709    -0.05000
C590        C  0.51725763  0.76311675  0.48487319    -0.02100
C591        C  0.51122582  0.78875453  0.48515221     0.02900
C592        C  0.59111772  0.86076557  0.03220734     0.37500
C593        C  0.49126876  0.72929674  0.47047729     0.37500
C594        C  0.47921848  0.78124920  0.47074341     0.35900
C595        C  0.60383850  0.80933976  0.03003175     0.35900
N596        N  0.45363953  0.77522284  0.45936854    -0.38900
N597        N  0.62939753  0.81531608  0.04140206    -0.38900
N598        N  0.47056959  0.70225745  0.45914994    -0.38300
N599        N  0.61124045  0.88727714  0.04503187    -0.38300
C600        C  0.53114492  0.90976660  0.06396667    -0.05000
C601        C  0.55139299  0.94613588  0.06495330    -0.02100
C602        C  0.55301246  0.96322880  0.09712812     0.02900
C603        C  0.53579214  0.94425168  0.12890438    -0.05000
C604        C  0.51575995  0.90807676  0.12811683    -0.02100
C605        C  0.51281106  0.89084400  0.09557200     0.02900
C606        C  0.57114593  0.96621008  0.03320265     0.37500
C607        C  0.49853979  0.88853341  0.16101240     0.37500
C608        C  0.48955073  0.85363979  0.09430329     0.35900
C609        C  0.57085501  0.00023945  0.09699283     0.35900
N610        N  0.47079145  0.82399654  0.09319306    -0.38900
N611        N  0.58465273  0.02968215  0.09676570    -0.38900
N612        N  0.48496712  0.87296048  0.18728737    -0.38300
N613        N  0.58716299  0.98243644  0.50797800    -0.38300
C614        C  0.52404671  0.93477091  0.36703626    -0.05000
C615        C  0.50268126  0.93078639  0.39644513    -0.02100
C616        C  0.50019055  0.91255275  0.42781964     0.02900
C617        C  0.52009761  0.89924840  0.43065741    -0.05000
C618        C  0.54032850  0.90202598  0.40039706    -0.02100
C619        C  0.54197879  0.91942799  0.36866824     0.02900
C620        C  0.48481404  0.94718969  0.39549057     0.37500
C621        C  0.56078790  0.88840665  0.40203745     0.37500
C622        C  0.56205017  0.92129010  0.33749573     0.35900
C623        C  0.47677989  0.90732895  0.45701812     0.35900
N624        N  0.57799112  0.92271384  0.31263744    -0.38900
N625        N  0.45804198  0.90317385  0.48019413    -0.38900
N626        N  0.57708082  0.87751904  0.40314515    -0.38300
N627        N  0.47082349  0.96051939  0.39495450    -0.38300
C628        C  0.52999681  0.84862678  0.49981382     0.80600
N629        N  0.52468841  0.85861669  0.96758233    -0.77700
C630        C  0.52200060  0.88540335  0.96618954     0.83000
N631        N  0.52412305  0.90169732  0.99752688    -0.77700
C632        C  0.52892574  0.89166664  0.52992680     0.83100
N633        N  0.53205613  0.86518535  0.53092818    -0.79400
C634        C  0.30932717  0.92863808  0.50066865     0.80600
N635        N  0.32590648  0.93858277  0.96789612    -0.77700
C636        C  0.36057043  0.96150926  0.96571522     0.83000
N637        N  0.37939795  0.97398232  0.99656652    -0.77700
C638        C  0.36356840  0.96404521  0.52962944     0.83100
N639        N  0.32866168  0.94133901  0.53138702    -0.79400
N640        N  0.62046860  0.09830391  0.79618028    -0.05800
N641        N  0.63883341  0.11658249  0.82464417    -0.57900
N642        N  0.62072013  0.07092626  0.71282265    -0.05500
N643        N  0.63972862  0.07009863  0.68708264    -0.60000
N644        N  0.62475565  0.10055753  0.71259655    -0.05100
N645        N  0.64638889  0.12032436  0.68648248    -0.57900
N646        N  0.61605005  0.06844131  0.79599450    -0.04700
N647        N  0.63141785  0.06583229  0.82423601    -0.60400
C648        C  0.64547805  0.09604220  0.84188735     0.96400
C649        C  0.65577593  0.10113836  0.67079169     0.96200
N650        N  0.52267854  0.97829057  0.70728027    -0.06000
N651        N  0.50969782  0.95765807  0.67885638    -0.58500
N652        N  0.55162280  0.99145807  0.79231081    -0.04100
N653        N  0.55946712  0.97954991  0.81978485    -0.59700
N654        N  0.51806807  0.97588008  0.79074457    -0.06000
N655        N  0.50233257  0.95304524  0.81715202    -0.58700
N656        N  0.55630813  0.99425819  0.70850100    -0.03700
N657        N  0.56702804  0.98501393  0.68067665    -0.59800
Mn658      Mn  0.58687898  0.03086586  0.75245038     1.18400
C659        C  0.53761223  0.96214479  0.66261044     0.98500
C660        C  0.52850499  0.95565041  0.83499557     0.99100
N661        N  0.57551433  0.12484877  0.70989390    -0.06000
N662        N  0.59044829  0.14807978  0.68361598    -0.62300
N663        N  0.53750038  0.10579660  0.79219401    -0.04800
N664        N  0.52632584  0.11451019  0.81998484    -0.63000
N665        N  0.57115445  0.12199804  0.79369927    -0.05500
N666        N  0.58367736  0.14225751  0.82248128    -0.62600
N667        N  0.54186251  0.10858599  0.70874865    -0.04400
N668        N  0.53315491  0.12014073  0.68182817    -0.63300
Mn669      Mn  0.59901877  0.11268352  0.75302942     1.10700
C670        C  0.56356763  0.14481390  0.66637458     0.99700
C671        C  0.55540046  0.13726226  0.83851416     0.99800
N672        N  0.46878162  0.99961109  0.78803088    -0.05500
N673        N  0.44699022  0.97983881  0.81410429    -0.60900
N674        N  0.47830952  0.03207513  0.70463805    -0.04800
N675        N  0.46294584  0.03466065  0.67641146    -0.57600
N676        N  0.47416208  0.00238481  0.70424288    -0.06200
N677        N  0.45611677  0.98426178  0.67560166    -0.60500
N678        N  0.47314816  0.02936495  0.78801422    -0.05100
N679        N  0.45433413  0.03031746  0.81389193    -0.57700
Mn680      Mn  0.49498915  0.98789510  0.74762657     1.20200
Mn681      Mn  0.50708895  0.06932641  0.74840620     1.10100
Cl682      Cl  0.54703800  0.05021744  0.75041504    -0.85600
C683        C  0.43787191  0.99917499  0.83008152     0.96700
C684        C  0.44919723  0.00462676  0.65843681     0.96500
C685        C  0.54554209  0.24075288  0.00015246     0.80600
N686        N  0.54672951  0.22594642  0.96913119    -0.77700
C687        C  0.55472149  0.20297145  0.97051189     0.83000
N688        N  0.56085020  0.19431142  0.00307285    -0.77700
C689        C  0.56000107  0.20889958  0.53438283     0.83100
N690        N  0.55235827  0.23228520  0.53275125    -0.79400
C691        C  0.78024027  0.18621082  0.49947599     0.80600
N692        N  0.76096448  0.17110299  0.96919785    -0.77700
C693        C  0.72837921  0.14207424  0.97218948     0.83000
N694        N  0.71469800  0.12909899  0.00563830    -0.77700
C695        C  0.73386382  0.14426648  0.53591317     0.83100
N696        N  0.76661131  0.17264305  0.53262233    -0.79400
N697        N  0.06905020  0.63346356  0.79724716    -0.05800
N698        N  0.06873398  0.65053840  0.82530853    -0.57900
N699        N  0.09744057  0.63680353  0.71293457    -0.05500
N700        N  0.11713977  0.65603610  0.68533653    -0.60000
N701        N  0.06894554  0.63531552  0.71407486    -0.05100
N702        N  0.06864472  0.65349012  0.68741457    -0.57900
N703        N  0.09743932  0.63477663  0.79687357    -0.04700
N704        N  0.11687564  0.65265276  0.82504955    -0.60400
C705        C  0.09856828  0.66230742  0.84267124     0.96400
C706        C  0.09880756  0.66625850  0.66973712     0.96200
N707        N  0.09478524  0.54784186  0.70925714    -0.06000
N708        N  0.10249309  0.53632711  0.68100413    -0.58500
N709        N  0.11435686  0.58015117  0.79335025    -0.04100
N710        N  0.13677402  0.59187713  0.82017885    -0.59700
N711        N  0.09525499  0.54641556  0.79271778    -0.06000
N712        N  0.10419246  0.53447271  0.81909257    -0.58700
N713        N  0.11393666  0.58161021  0.70942210    -0.03700
N714        N  0.13525023  0.59379833  0.68107219    -0.59800
Mn715      Mn  0.10714566  0.60937158  0.75311616     1.18400
C716        C  0.12768222  0.56512620  0.66360550     0.98500
C717        C  0.13014334  0.56307339  0.83603285     0.99100
N718        N  0.98941647  0.57674243  0.71426608    -0.06000
N719        N  0.97959336  0.58853560  0.68863613    -0.62300
N720        N  0.97080750  0.54132555  0.79726385    -0.04800
N721        N  0.94827908  0.52867435  0.82448701    -0.63000
N722        N  0.98974981  0.57506784  0.79779907    -0.05500
N723        N  0.98056697  0.58607021  0.82530465    -0.62600
N724        N  0.97045646  0.54304835  0.71354365    -0.04400
N725        N  0.94735257  0.53137759  0.68741622    -0.63300
Mn726      Mn  0.02916834  0.60590590  0.75582918     1.10700
C727        C  0.95312214  0.56001491  0.67195281     0.99700
C728        C  0.95468390  0.55693982  0.84180133     0.99800
N729        N  0.01604113  0.48783061  0.79295731    -0.05500
N730        N  0.01605161  0.46935326  0.81949851    -0.60900
N731        N  0.98756432  0.48838987  0.71024769    -0.04800
N732        N  0.96778110  0.47041000  0.68238159    -0.57600
N733        N  0.01583597  0.48946218  0.70966683    -0.06200
N734        N  0.01586844  0.47217425  0.68156466    -0.60500
N735        N  0.98769143  0.48658279  0.79401924    -0.05100
N736        N  0.96783858  0.46728531  0.82144729    -0.57700
Mn737      Mn  0.05568549  0.51716152  0.75118371     1.20200
Mn738      Mn  0.97794914  0.51388962  0.75375261     1.10100
Cl739      Cl  0.04250291  0.56160724  0.75343798    -0.85600
C740        C  0.98585568  0.45670826  0.83706452     0.96700
C741        C  0.98578331  0.46046279  0.66481297     0.96500
C742        C  0.22158306  0.53812090  0.50197229     0.80600
N743        N  0.21230468  0.54350983  0.96920852    -0.77700
C744        C  0.19113031  0.55391799  0.96779722     0.83000
N745        N  0.17925117  0.55862640  0.49950928    -0.77700
C746        C  0.18891132  0.55388704  0.53219495     0.83100
N747        N  0.21005271  0.54343849  0.53346809    -0.79400
C748        C  0.90147263  0.32538823  0.50313474     0.80600
N749        N  0.91322406  0.34342556  0.53473866    -0.77700
C750        C  0.93779491  0.37784438  0.53380212     0.83000
N751        N  0.95000063  0.39400914  0.50126535    -0.77700
C752        C  0.93835322  0.37602999  0.96969835     0.83100
N753        N  0.91386772  0.34167843  0.97081722    -0.79400
C754        C  0.85205133  0.57092961  0.50616041     0.80600
N755        N  0.86469263  0.56761515  0.97458000    -0.77700
C756        C  0.89001278  0.56248785  0.97481658     0.83000
N757        N  0.90236573  0.56047903  0.50720653    -0.77700
C758        C  0.88977837  0.56393950  0.53900154     0.83100
N759        N  0.86464337  0.56918574  0.53841674    -0.79400
C760        C  0.17484451  0.79935013  0.50462208     0.80600
N761        N  0.16274249  0.78148384  0.53646188    -0.77700
C762        C  0.13962848  0.74672757  0.53676080     0.83000
N763        N  0.12860368  0.72958339  0.50464705    -0.77700
C764        C  0.13990329  0.74681669  0.97251533     0.83100
N765        N  0.16317949  0.78137047  0.97269966    -0.79400
N766        N  0.48551900  0.45639242  0.70762581    -0.05800
N767        N  0.46983224  0.43424326  0.68064335    -0.57900
N768        N  0.51778757  0.46932831  0.79153250    -0.05500
N769        N  0.52523177  0.45742646  0.81931792    -0.60000
N770        N  0.48469574  0.45641424  0.79148510    -0.05100
N771        N  0.46886398  0.43522001  0.81934045    -0.57900
N772        N  0.51847511  0.46896084  0.70790324    -0.04700
N773        N  0.52588940  0.45571592  0.68109089    -0.60400
C774        C  0.49535924  0.43406565  0.66425218     0.96400
C775        C  0.49458687  0.43620678  0.83634941     0.96200
N776        N  0.59687628  0.57455970  0.79166379    -0.06000
N777        N  0.61914535  0.59250269  0.81797120    -0.58500
N778        N  0.58769668  0.54267993  0.70774861    -0.04100
N779        N  0.60109375  0.53724291  0.67934994    -0.59700
N780        N  0.59649771  0.57435059  0.70753796    -0.06000
N781        N  0.61610961  0.59111863  0.67882147    -0.58700
N782        N  0.58795542  0.54287090  0.79165959    -0.03700
N783        N  0.60384601  0.53861608  0.81803432    -0.59800
Mn784      Mn  0.55352445  0.50553635  0.74977491     1.18400
C785        C  0.62333319  0.56977555  0.83431809     0.98500
C786        C  0.61872802  0.56758550  0.66148555     0.99100
N787        N  0.44282910  0.48902175  0.79054614    -0.06000
N788        N  0.42043522  0.47130125  0.81709089    -0.62300
N789        N  0.45363007  0.52155519  0.70713400    -0.04800
N790        N  0.43998422  0.52706126  0.67943936    -0.63000
N791        N  0.44433362  0.48969109  0.70688029    -0.05500
N792        N  0.42387375  0.47271721  0.67896985    -0.62600
N793        N  0.45207161  0.52080900  0.79059645    -0.04400
N794        N  0.43645273  0.52545529  0.81722270    -0.63300
Mn795      Mn  0.46321486  0.47166238  0.74913379     1.10700
C796        C  0.41666008  0.49441416  0.83354569     0.99700
C797        C  0.42147662  0.49645800  0.66224448     0.99800
N798        N  0.55587236  0.60792305  0.70845519    -0.05500
N799        N  0.57218538  0.63030859  0.68168756    -0.60900
N800        N  0.52150813  0.59403918  0.79202939    -0.04800
N801        N  0.51336846  0.60561140  0.81993173    -0.57600
N802        N  0.55449559  0.60663784  0.79255092    -0.06200
N803        N  0.56951404  0.62716816  0.82092045    -0.60500
N804        N  0.52288818  0.59515881  0.70818654    -0.05100
N805        N  0.51603174  0.60840090  0.68121574    -0.57700
Mn806      Mn  0.57706053  0.59205477  0.75010565     1.20200
Mn807      Mn  0.48703118  0.55831436  0.74946407     1.10100
Cl808      Cl  0.52020570  0.53187802  0.74965593    -0.85600
C809        C  0.54697967  0.63038458  0.66486839     0.96700
C810        C  0.54348168  0.62621762  0.83775282     0.96500
C811        C  0.49892320  0.32844299  0.49658489     0.80600
N812        N  0.49480490  0.33902010  0.52935192    -0.77700
C813        C  0.48777378  0.36278453  0.53135327     0.83000
N814        N  0.48507427  0.37589907  0.49995551    -0.77700
C815        C  0.48870392  0.36543964  0.96687863     0.83100
N816        N  0.49595297  0.34180299  0.96524621    -0.79400
C817        C  0.30715163  0.48862529  0.50263053     0.80600
N818        N  0.32256409  0.48833992  0.53346688    -0.77700
C819        C  0.34756272  0.48286069  0.53145475     0.83000
N820        N  0.35785298  0.47896457  0.49838384    -0.77700
C821        C  0.34312413  0.47974184  0.96724141     0.83100
N822        N  0.31763983  0.48447541  0.96964097    -0.79400
C823        C  0.74106045  0.58757859  0.50061814     0.80600
N824        N  0.72495851  0.58667154  0.53179457    -0.77700
C825        C  0.69681382  0.58722692  0.53020761     0.83000
N826        N  0.68426596  0.58773026  0.49736844    -0.77700
C827        C  0.69998733  0.58860794  0.96613589     0.83100
N828        N  0.72853756  0.58855971  0.96795597    -0.79400
C829        C  0.55380696  0.74264914  0.50004121     0.80600
N830        N  0.55628603  0.73043018  0.53229756    -0.77700
C831        C  0.55862891  0.70341372  0.53304231     0.83000
N832        N  0.55836604  0.68864986  0.50125999    -0.77700
C833        C  0.55598987  0.70068637  0.96893097     0.83100
N834        N  0.55334866  0.72749380  0.96834349    -0.79400
C835        C  0.39420398  0.48736744  0.86584271    -0.05000
C836        C  0.38047030  0.50667071  0.87119330    -0.02100
C837        C  0.36353882  0.50397479  0.90403891     0.02900
C838        C  0.35813128  0.48033205  0.93120610    -0.05000
C839        C  0.36965380  0.45924787  0.92477462    -0.02100
C840        C  0.38797862  0.46303088  0.89253363     0.02900
C841        C  0.38331396  0.52933844  0.84283999     0.37500
C842        C  0.36296203  0.43367796  0.95147105     0.37500
C843        C  0.40151805  0.44268776  0.88790752     0.35900
C844        C  0.35384596  0.52740513  0.91043788     0.35900
N845        N  0.41223604  0.42638242  0.88442181    -0.38900
N846        N  0.34635947  0.54626105  0.91544344    -0.38900
N847        N  0.35758891  0.41324567  0.47289852    -0.38300
N848        N  0.38542544  0.54739718  0.82035987    -0.38300
C849        C  0.40251018  0.49075561  0.62818546    -0.05000
C850        C  0.42074586  0.51038858  0.59704497    -0.02100
C851        C  0.40278344  0.50748991  0.56534906     0.02900
C852        C  0.36633273  0.48503435  0.56463484    -0.05000
C853        C  0.34812345  0.46510627  0.59574950    -0.02100
C854        C  0.36622217  0.46781039  0.62738795     0.02900
C855        C  0.45815727  0.53353485  0.59756097     0.37500
C856        C  0.31079812  0.44155485  0.59511594     0.37500
C857        C  0.34742948  0.44792916  0.65955949     0.35900
C858        C  0.42193090  0.52863588  0.53393152     0.35900
N859        N  0.33240497  0.43209824  0.68523727    -0.38900
N860        N  0.43712423  0.54531012  0.50875895    -0.38900
N861        N  0.28101764  0.42284740  0.59455088    -0.38300
N862        N  0.48796339  0.55196067  0.59800183    -0.38300
C863        C  0.54715426  0.64539775  0.87150542    -0.05000
C864        C  0.52205049  0.62904849  0.89961183    -0.02100
C865        C  0.52473145  0.64753475  0.93099583     0.02900
C866        C  0.55273406  0.68226616  0.93493723    -0.05000
C867        C  0.57759788  0.69880837  0.90686273    -0.02100
C868        C  0.57492384  0.68041636  0.87527359     0.02900
C869        C  0.49390712  0.59288320  0.89702259     0.37500
C870        C  0.60607255  0.73470039  0.91060944     0.36600
C871        C  0.60020556  0.69794747  0.84620842     0.35900
C872        C  0.49792427  0.63121887  0.95881418     0.35900
N873        N  0.62035882  0.71194253  0.82300209    -0.38900
N874        N  0.47720610  0.61881136  0.48164567    -0.38900
N875        N  0.62871950  0.76336823  0.91354896    -0.38300
N876        N  0.47143514  0.56403727  0.89533600    -0.38300
C877        C  0.55792225  0.68771029  0.56821765    -0.05000
C878        C  0.53283240  0.67988596  0.59502016    -0.02100
C879        C  0.53089190  0.66324046  0.62752830     0.02900
C880        C  0.55218767  0.65172907  0.63246356    -0.05000
C881        C  0.57741195  0.65970685  0.60560628    -0.02100
C882        C  0.58084943  0.67844245  0.57419564     0.02900
C883        C  0.50747718  0.68700779  0.58839434     0.37500
C884        C  0.59894681  0.64743974  0.60910372     0.37500
C885        C  0.60832679  0.68848620  0.54813507     0.35900
C886        C  0.50736830  0.65884847  0.65616426     0.35900
N887        N  0.63035351  0.69666503  0.52746860    -0.38900
N888        N  0.48877869  0.65567254  0.67901138    -0.38900
N889        N  0.61608752  0.63758918  0.61155487    -0.38300
N890        N  0.48704614  0.69234743  0.58297026    -0.38300
C891        C  0.68429837  0.58705857  0.93036846    -0.05000
C892        C  0.68074675  0.56469486  0.90242839    -0.02100
C893        C  0.66217624  0.56026586  0.87050021     0.02900
C894        C  0.64637726  0.57770289  0.86616789    -0.05000
C895        C  0.65200143  0.60186656  0.89300877    -0.02100
C896        C  0.67068055  0.60636689  0.92488699     0.02900
C897        C  0.69490093  0.54494347  0.90687444     0.37500
C898        C  0.63806584  0.62181259  0.88860660     0.37500
C899        C  0.67600583  0.63121511  0.95204060     0.35900
C900        C  0.66024970  0.53826155  0.84170704     0.35900
N901        N  0.68013129  0.65092577  0.97373431    -0.38900
N902        N  0.65891757  0.52081087  0.81876941    -0.38900
N903        N  0.62730852  0.63804953  0.88522389    -0.38300
N904        N  0.70622674  0.52922301  0.91026788    -0.38300
C905        C  0.67717134  0.58284110  0.56371486    -0.05000
C906        C  0.69086185  0.60905964  0.59013098    -0.02100
C907        C  0.67136489  0.60470390  0.62159562     0.02900
C908        C  0.63827894  0.57373309  0.62705882    -0.05000
C909        C  0.62458917  0.54767636  0.60017513    -0.02100
C910        C  0.64416126  0.55213203  0.56892054     0.02900
C911        C  0.72510177  0.64042720  0.58500087     0.37500
C912        C  0.58989580  0.51656646  0.60377959     0.37500
C913        C  0.63101055  0.52444937  0.54268394     0.35900
C914        C  0.68588615  0.63180466  0.64867439     0.35900
N915        N  0.62113390  0.50252081  0.52172299    -0.38900
N916        N  0.69742507  0.65349737  0.67019873    -0.38900
N917        N  0.56221274  0.49171888  0.60614699    -0.38300
N918        N  0.75249636  0.66538125  0.58102511    -0.38300
C919        C  0.48918495  0.38304358  0.93344142    -0.05000
C920        C  0.51165860  0.41925262  0.93141877    -0.02100
C921        C  0.51224646  0.43656565  0.90022187     0.02900
C922        C  0.49073861  0.41783987  0.87044635    -0.05000
C923        C  0.46794074  0.38168263  0.87245780    -0.02100
C924        C  0.46730935  0.36427359  0.90383865     0.02900
C925        C  0.53537126  0.43876780  0.96088468     0.37500
C926        C  0.44607185  0.36233245  0.84174673     0.37500
C927        C  0.44406811  0.32712613  0.90569153     0.35900
C928        C  0.53474037  0.47384978  0.89906098     0.35900
N929        N  0.42557996  0.29747250  0.90706372    -0.38900
N930        N  0.55260374  0.50355430  0.89824500    -0.38900
N931        N  0.42866532  0.34693956  0.81719536    -0.38300
N932        N  0.55368081  0.45413564  0.48494498    -0.38300
C933        C  0.49079262  0.41289148  0.63178512    -0.05000
C934        C  0.46772372  0.40695704  0.60373719    -0.02100
C935        C  0.46539760  0.38898531  0.57191099     0.02900
C936        C  0.48665077  0.37726725  0.56723621    -0.05000
C937        C  0.50850114  0.38179929  0.59622253    -0.02100
C938        C  0.51037089  0.39929865  0.62822925     0.02900
C939        C  0.44725320  0.42054794  0.60661099     0.37500
C940        C  0.53016373  0.36956625  0.59328441     0.37500
C941        C  0.53238498  0.40284510  0.65774300     0.35900
C942        C  0.44064091  0.38237703  0.54417139     0.35900
N943        N  0.54999577  0.40560743  0.68113622    -0.38900
N944        N  0.42093663  0.37725584  0.52210709    -0.38900
N945        N  0.54740384  0.35975393  0.59152212    -0.38300
N946        N  0.43086419  0.43131029  0.60868999    -0.38300
C947        C  0.82393830  0.57560333  0.50563552    -0.05000
C948        C  0.78973409  0.54741350  0.51284647    -0.02100
C949        C  0.76265317  0.55145080  0.51137138     0.02900
C950        C  0.76967621  0.58366868  0.50241997    -0.05000
C951        C  0.80381298  0.61200413  0.99544171    -0.02100
C952        C  0.83107417  0.60821462  0.99752614     0.02900
C953        C  0.78247830  0.51422995  0.52168204     0.37500
C954        C  0.81091837  0.64510333  0.98662958     0.37500
C955        C  0.86643501  0.63779511  0.99259831     0.35900
C956        C  0.72744938  0.52230374  0.51849121     0.35900
N957        N  0.89467649  0.66150250  0.98914315    -0.38900
N958        N  0.69936280  0.49908972  0.52418802    -0.38900
N959        N  0.81647567  0.67147392  0.97960910    -0.38300
N960        N  0.77687881  0.48785735  0.52879875    -0.38300
C961        C  0.24318706  0.52517062  0.50301162    -0.05000
C962        C  0.22806358  0.48978799  0.49827976    -0.02100
C963        C  0.24885229  0.47752392  0.49862817     0.02900
C964        C  0.28470033  0.50061695  0.50392976    -0.05000
C965        C  0.29997598  0.53611211  0.00818302    -0.02100
C966        C  0.27922061  0.54833616  0.00767603     0.02900
C967        C  0.19115609  0.46609902  0.49286724     0.37500
C968        C  0.33709251  0.56010703  0.01182404     0.37500
C969        C  0.29487096  0.58483126  0.01094410     0.35900
C970        C  0.23346290  0.44125774  0.49345985     0.35900
N971        N  0.30734437  0.61395929  0.01332161    -0.38900
N972        N  0.22117439  0.41231832  0.48929757    -0.38900
N973        N  0.36671871  0.57908371  0.01453101    -0.38300
N974        N  0.16171643  0.44726362  0.48847716    -0.38300
C975        C  0.90376341  0.56249026  0.57420884    -0.05000
C976        C  0.92502163  0.59259062  0.59477812    -0.02100
C977        C  0.93968933  0.59161250  0.62759539     0.02900
C978        C  0.93380450  0.56033959  0.63983921    -0.05000
C979        C  0.90977785  0.52962184  0.62041413    -0.02100
C980        C  0.89519383  0.53090988  0.58767827     0.02900
C981        C  0.93199175  0.62477927  0.58192510     0.37500
C982        C  0.89891178  0.49624838  0.63399477     0.37500
C983        C  0.87020852  0.49941825  0.56844202     0.35900
C984        C  0.95983012  0.62291711  0.64889346     0.35900
N985        N  0.84997251  0.47418758  0.55349785    -0.38900
N986        N  0.97567895  0.64799365  0.66573647    -0.38900
N987        N  0.88986162  0.46943964  0.64460602    -0.38300
N988        N  0.93741082  0.65037574  0.57171587    -0.38300
C989        C  0.93579692  0.55649804  0.87474464    -0.05000
C990        C  0.92776331  0.58066232  0.87828396    -0.02100
C991        C  0.91231240  0.58221181  0.91054913     0.02900
C992        C  0.90451807  0.55951314  0.93983555    -0.05000
C993        C  0.91135878  0.53445363  0.93566732    -0.02100
C994        C  0.92679553  0.53290140  0.90333024     0.02900
C995        C  0.93469288  0.60369897  0.84837474     0.37500
C996        C  0.90206584  0.50961409  0.96429077     0.37500
C997        C  0.93431733  0.50753046  0.90017625     0.35900
C998        C  0.90554319  0.60811701  0.91366365     0.35900
N999        N  0.94015434  0.48718629  0.89777248    -0.38900
N1000       N  0.90012756  0.62877965  0.91567841    -0.38900
N1001       N  0.89494868  0.48956256  0.98674433    -0.38300
N1002       N  0.94015850  0.62209380  0.82460129    -0.38300
C1003       C  0.97403831  0.43947656  0.63118284    -0.05000
C1004       C  0.96126471  0.44810011  0.60200402    -0.02100
C1005       C  0.94842161  0.42727725  0.57070305     0.02900
C1006       C  0.94951587  0.39839082  0.56771089    -0.05000
C1007       C  0.96312991  0.39024632  0.59646385    -0.02100
C1008       C  0.97546344  0.41079284  0.62809332     0.02900
C1009       C  0.96353901  0.47973763  0.60301397     0.37500
C1010       C  0.96527771  0.36124184  0.59319518     0.37500
C1011       C  0.98947209  0.40221381  0.65744994     0.35900
C1012       C  0.93327260  0.43520923  0.54195264     0.35900
N1013       N  0.00084706  0.39545986  0.68072665    -0.38900
N1014       N  0.92109402  0.44143577  0.51907507    -0.38900
N1015       N  0.96701362  0.33812059  0.59068214    -0.38300
N1016       N  0.96601137  0.50530491  0.60346590    -0.38300
C1017       C  0.95078793  0.39465199  0.93440579    -0.05000
C1018       C  0.98621063  0.42120362  0.92946740    -0.02100
C1019       C  0.99779991  0.44124785  0.89752545     0.02900
C1020       C  0.97416293  0.43451756  0.86982577    -0.05000
C1021       C  0.93908402  0.40688369  0.87388177    -0.02100
C1022       C  0.92732312  0.38735934  0.90619321     0.02900
C1023       C  0.01103957  0.42782807  0.95710750     0.37500
C1024       C  0.91500825  0.39779638  0.84441300     0.37500
C1025       C  0.89073171  0.36071985  0.91045463     0.35900
C1026       C  0.03396789  0.46959298  0.89407249     0.35900
N1027       N  0.86142672  0.33961226  0.91293412    -0.38900
N1028       N  0.06284550  0.49211607  0.89161533    -0.38900
N1029       N  0.89577169  0.39034974  0.82094150    -0.38300
N1030       N  0.03077032  0.43298598  0.47897651    -0.38300
C1031       C  0.17382444  0.55738512  0.56587827    -0.05000
C1032       C  0.13763615  0.53736780  0.57008438    -0.02100
C1033       C  0.12269963  0.54107165  0.60132221     0.02900
C1034       C  0.14382558  0.56443943  0.62908301    -0.05000
C1035       C  0.18008020  0.58508425  0.62450479    -0.02100
C1036       C  0.19503460  0.58148916  0.59296802     0.02900
C1037       C  0.11562921  0.51218766  0.54257946     0.37500
C1038       C  0.20209631  0.60936221  0.65256833     0.37500
C1039       C  0.23218783  0.60305659  0.58803091     0.35900
C1040       C  0.08539877  0.52145536  0.60413721     0.35900
N1041       N  0.26182342  0.62030512  0.58403686    -0.38900
N1042       N  0.05565771  0.50586764  0.60598773    -0.38900
N1043       N  0.21971046  0.62880390  0.67490079    -0.38300
N1044       N  0.09833140  0.49223994  0.02039790    -0.38300
C1045       C  0.14854333  0.56262703  0.86835362    -0.05000
C1046       C  0.15865001  0.58666118  0.89683275    -0.02100
C1047       C  0.17434102  0.58493371  0.92831702     0.02900
C1048       C  0.17911546  0.55844288  0.93234546    -0.05000
C1049       C  0.17017591  0.53518868  0.90320885    -0.02100
C1050       C  0.15527616  0.53749053  0.87132609     0.02900
C1051       C  0.15152104  0.61234908  0.89485875     0.37500
C1052       C  0.17508136  0.50797671  0.90606907     0.37500
C1053       C  0.14731382  0.51403454  0.84137895     0.35900
C1054       C  0.18593844  0.61094753  0.95636781     0.35900
N1055       N  0.14102588  0.49529652  0.81758287    -0.38900
N1056       N  0.19475424  0.63152175  0.47879744    -0.38900
N1057       N  0.17902641  0.48628239  0.90791535    -0.38300
N1058       N  0.14583829  0.63283381  0.89362027    -0.38300
C1059       C  0.12894295  0.72711084  0.57164540    -0.05000
C1060       C  0.09456278  0.69794307  0.57673617    -0.02100
C1061       C  0.08509153  0.67777427  0.60839735     0.02900
C1062       C  0.10935619  0.68728202  0.63620342    -0.05000
C1063       C  0.14347519  0.71668501  0.63173327    -0.02100
C1064       C  0.15349112  0.73602726  0.59927015     0.02900
C1065       C  0.06824161  0.68824141  0.54988411     0.37500
C1066       C  0.16823212  0.72757604  0.66086132     0.37500
C1067       C  0.18958084  0.76383977  0.59380511     0.35900
C1068       C  0.05060515  0.64614539  0.61135109     0.35900
N1069       N  0.21845624  0.78580364  0.58958476    -0.38900
N1070       N  0.02323592  0.62081322  0.61332776    -0.38900
N1071       N  0.18793749  0.73639082  0.68414498    -0.38300
N1072       N  0.04612004  0.67840751  0.02928821    -0.38300
C1073       C  0.10970197  0.68395283  0.87623033    -0.05000
C1074       C  0.14516366  0.70811743  0.88424510    -0.02100
C1075       C  0.15511846  0.72935120  0.91529673     0.02900
C1076       C  0.12990351  0.72743400  0.93791848    -0.05000
C1077       C  0.09484670  0.70491650  0.92890287    -0.02100
C1078       C  0.08461788  0.68194130  0.89959667     0.02900
C1079       C  0.17173005  0.71170370  0.86068077     0.37500
C1080       C  0.06939744  0.70729348  0.94785677     0.37500
C1081       C  0.04809444  0.65526082  0.89508678     0.35900
C1082       C  0.19141128  0.75319054  0.92401667     0.35900
N1083       N  0.01892650  0.63389436  0.89219098    -0.38900
N1084       N  0.22031398  0.77237906  0.93096432    -0.38900
N1085       N  0.04895381  0.70974283  0.96169913    -0.38300
N1086       N  0.19313107  0.71470145  0.84212073    -0.38300
C1087       C  0.87082849  0.28957499  0.50337809    -0.05000
C1088       C  0.87348861  0.26209604  0.01103909    -0.02100
C1089       C  0.84389891  0.22791849  0.00895920     0.02900
C1090       C  0.81205573  0.22134429  0.49802653    -0.05000
C1091       C  0.80945635  0.24885047  0.49134033    -0.02100
C1092       C  0.83860351  0.28286154  0.49498082     0.02900
C1093       C  0.90634817  0.26917224  0.02148343     0.37500
C1094       C  0.77639284  0.24223249  0.48255719     0.37500
C1095       C  0.83508857  0.31102734  0.49237021     0.35900
C1096       C  0.84591536  0.19969340  0.01844883     0.35900
N1097       N  0.83233614  0.33353714  0.49092515    -0.38900
N1098       N  0.84734224  0.17710212  0.02626005    -0.38900
N1099       N  0.75007644  0.23704113  0.47558307    -0.38300
N1100       N  0.93250742  0.27471979  0.02996439    -0.38300
C1101       C  0.53392652  0.26327760  0.49860884    -0.05000
C1102       C  0.49904847  0.24932909  0.99037078    -0.02100
C1103       C  0.48758257  0.27071462  0.98898133     0.02900
C1104       C  0.51105855  0.30613347  0.49547006    -0.05000
C1105       C  0.54603164  0.32032065  0.50263095    -0.02100
C1106       C  0.55738790  0.29887061  0.50451620     0.02900
C1107       C  0.47498503  0.21273444  0.98387394     0.37500
C1108       C  0.57045783  0.35714429  0.50722204     0.37500
C1109       C  0.59335006  0.31347769  0.51160299     0.35900
C1110       C  0.45175412  0.25620390  0.98128304     0.35900
N1111       N  0.62205713  0.32510877  0.51713647    -0.38900
N1112       N  0.42316555  0.24461739  0.97510497    -0.38900
N1113       N  0.58987948  0.38654782  0.51065285    -0.38300
N1114       N  0.45595380  0.18354441  0.97861285    -0.38300
C1115       C  0.71734331  0.13353882  0.57231657    -0.05000
C1116       C  0.69741118  0.09863948  0.58237602    -0.02100
C1117       C  0.67885879  0.08804480  0.61555919     0.02900
C1118       C  0.67945135  0.11238248  0.63863507    -0.05000
C1119       C  0.70188208  0.14776233  0.62972576    -0.02100
C1120       C  0.72022438  0.15819401  0.59652183     0.02900
C1121       C  0.69614673  0.07353634  0.55858491     0.37500
C1122       C  0.70703407  0.17396536  0.65481980     0.37500
C1123       C  0.74075790  0.19437543  0.58672432     0.35900
C1124       C  0.65939171  0.05199590  0.62536780     0.35900
N1125       N  0.75713522  0.22320315  0.57904347    -0.38900
N1126       N  0.64426451  0.02322543  0.63301523    -0.38900
N1127       N  0.71141640  0.19506512  0.67463924    -0.38300
N1128       N  0.69510121  0.05351551  0.53962925    -0.38300
C1129       C  0.66532347  0.10554196  0.87623925    -0.05000
C1130       C  0.69132772  0.10000010  0.88043112    -0.02100
C1131       C  0.71133921  0.11102442  0.91240437     0.02900
C1132       C  0.70595975  0.12820200  0.93987156    -0.05000
C1133       C  0.67932678  0.13274418  0.93629531    -0.02100
C1134       C  0.65876191  0.12103211  0.90484011     0.02900
C1135       C  0.69845423  0.08409893  0.85147433     0.37500
C1136       C  0.67349321  0.15012579  0.96474653     0.37500
C1137       C  0.63003096  0.12386131  0.90261551     0.35900
C1138       C  0.73699318  0.10409542  0.91749556     0.35900
N1139       N  0.60695564  0.12586247  0.90105661    -0.38900
N1140       N  0.75722633  0.09830098  0.92183669    -0.38900
N1141       N  0.66899046  0.16436845  0.48720503    -0.38300
N1142       N  0.70429931  0.07148260  0.82843308    -0.38300
C1143       C  0.56420002  0.19684073  0.57001812    -0.05000
C1144       C  0.58879520  0.18924317  0.57375454    -0.02100
C1145       C  0.58948913  0.17323274  0.60565713     0.02900
C1146       C  0.56620489  0.16544077  0.63456687    -0.05000
C1147       C  0.54323964  0.17513507  0.63182752    -0.02100
C1148       C  0.54172943  0.19006049  0.59955350     0.02900
C1149       C  0.61341898  0.19762604  0.54468182     0.37500
C1150       C  0.52092111  0.16982815  0.66230424     0.37500
C1151       C  0.51535955  0.19627626  0.59625676     0.35900
C1152       C  0.61292977  0.16310395  0.60765974     0.35900
N1153       N  0.49421325  0.20105242  0.59369265    -0.38900
N1154       N  0.63154769  0.15493598  0.60908756    -0.38900
N1155       N  0.50310746  0.16563864  0.68653126    -0.38300
N1156       N  0.63277177  0.20405188  0.02133257    -0.38300
C1157       C  0.55596221  0.15411320  0.87257084    -0.05000
C1158       C  0.53433533  0.13404472  0.90201512    -0.02100
C1159       C  0.53380823  0.15007712  0.93402132     0.02900
C1160       C  0.55522897  0.18623004  0.93687789    -0.05000
C1161       C  0.57724936  0.20628563  0.90766057    -0.02100
C1162       C  0.57767855  0.19024152  0.87557034     0.02900
C1163       C  0.51373861  0.09683602  0.90006022     0.37500
C1164       C  0.59997817  0.24340821  0.91088584     0.37500
C1165       C  0.59989882  0.21100118  0.84535244     0.35900
C1166       C  0.51053483  0.12935433  0.96365090     0.35900
N1167       N  0.61764388  0.22756861  0.82126956    -0.38900
N1168       N  0.49227933  0.11265453  0.48742020    -0.38900
N1169       N  0.61807843  0.27300264  0.91352200    -0.38300
N1170       N  0.49762882  0.06717915  0.89870908    -0.38300
C1171       C  0.27097077  0.90073716  0.50246339    -0.05000
C1172       C  0.25122277  0.88652832  0.96980851    -0.02100
C1173       C  0.21820785  0.85501858  0.97065980     0.02900
C1174       C  0.20402278  0.83717466  0.50428495    -0.05000
C1175       C  0.22004226  0.85528793  0.53702816    -0.02100
C1176       C  0.25353732  0.88634666  0.53623704     0.02900
C1177       C  0.26428735  0.90417683  0.93504756     0.37500
C1178       C  0.20198947  0.84302373  0.57175571     0.37500
C1179       C  0.26934066  0.90308653  0.57064280     0.35900
C1180       C  0.19923146  0.84179593  0.93676100     0.35900
N1181       N  0.28157848  0.91612840  0.59828829    -0.38900
N1182       N  0.18437643  0.83152380  0.90959214    -0.38900
N1183       N  0.18773333  0.83372984  0.59954890    -0.38300
N1184       N  0.27441809  0.91799234  0.90721405    -0.38300
C1185       C  0.38455798  0.97472895  0.56326149    -0.05000
C1186       C  0.37875794  0.94973943  0.58869780    -0.02100
C1187       C  0.39950136  0.95953925  0.61991155     0.02900
C1188       C  0.42732262  0.99434977  0.62536155    -0.05000
C1189       C  0.43363043  0.01923899  0.59934779    -0.02100
C1190       C  0.41176310  0.00956641  0.56903836     0.02900
C1191       C  0.35219388  0.91356770  0.58227101     0.37500
C1192       C  0.46345643  0.05465145  0.60261004     0.37500
C1193       C  0.41667753  0.03577676  0.54444462     0.35900
C1194       C  0.39142044  0.93350141  0.64664273     0.35900
N1195       N  0.42043952  0.05660609  0.02493483    -0.38900
N1196       N  0.38486107  0.91264063  0.66785973    -0.38900
N1197       N  0.48733014  0.08286352  0.60480229    -0.38300
N1198       N  0.33109597  0.88471833  0.57721645    -0.38300
C1199       C  0.41453718  0.98840928  0.86276614    -0.05000
C1200       C  0.41092619  0.01234241  0.88162998    -0.02100
C1201       C  0.39290331  0.00329308  0.91511775     0.02900
C1202       C  0.37793916  0.97041533  0.92988171    -0.05000
C1203       C  0.37902879  0.94570237  0.91019658    -0.02100
C1204       C  0.39653286  0.95429758  0.87645319     0.02900
C1205       C  0.42503022  0.04625781  0.86697576     0.37500
C1206       C  0.36279754  0.91149339  0.92523231     0.37500
C1207       C  0.39476989  0.92733206  0.85578301     0.35900
C1208       C  0.38909517  0.02765962  0.93415848     0.35900
N1209       N  0.39299630  0.90557918  0.83942184    -0.38900
N1210       N  0.38587032  0.04705384  0.94907775    -0.38900
N1211       N  0.34995430  0.88428937  0.93730063    -0.38300
N1212       N  0.43603396  0.07334925  0.85558370    -0.38300
C1213       C  0.53565413  0.82120593  0.50067050    -0.05000
C1214       C  0.56601186  0.82771864  0.51624267    -0.02100
C1215       C  0.57220032  0.80219418  0.51557516     0.02900
C1216       C  0.54791503  0.76988056  0.49978546    -0.05000
C1217       C  0.51695388  0.76290997  0.98486693    -0.02100
C1218       C  0.51093086  0.78855546  0.98518689     0.02900
C1219       C  0.59140630  0.86101863  0.53213035     0.37500
C1220       C  0.49097342  0.72911275  0.97041651     0.37500
C1221       C  0.47892060  0.78106727  0.97080927     0.35900
C1222       C  0.60413598  0.80959594  0.53006390     0.35900
N1223       N  0.45333774  0.77505528  0.95946520    -0.38900
N1224       N  0.62968800  0.81558341  0.54147099    -0.38900
N1225       N  0.47028095  0.70209371  0.95903896    -0.38300
N1226       N  0.61152685  0.88754713  0.54492314    -0.38300
C1227       C  0.53128602  0.90987238  0.56392352    -0.05000
C1228       C  0.55156614  0.94623985  0.56494966    -0.02100
C1229       C  0.55318176  0.96331027  0.59714134     0.02900
C1230       C  0.53592457  0.94430786  0.62889445    -0.05000
C1231       C  0.51585708  0.90813164  0.62806359    -0.02100
C1232       C  0.51290669  0.89092522  0.59549789     0.02900
C1233       C  0.57134969  0.96633165  0.53322024     0.37500
C1234       C  0.49860802  0.88855892  0.66093564     0.37500
C1235       C  0.48959443  0.85372640  0.59416850     0.35900
C1236       C  0.57105566  0.00032485  0.59704505     0.35900
N1237       N  0.47079013  0.82408882  0.59300396    -0.38900
N1238       N  0.58487565  0.02977106  0.59684809    -0.38900
N1239       N  0.48501416  0.87295977  0.68719141    -0.38300
N1240       N  0.58693551  0.98230158  0.00794411    -0.38300
C1241       C  0.52399852  0.93468775  0.86705270    -0.05000
C1242       C  0.50276817  0.93089368  0.89651320    -0.02100
C1243       C  0.50020871  0.91263228  0.92789292     0.02900
C1244       C  0.51993711  0.89912452  0.93069226    -0.05000
C1245       C  0.54002572  0.90171436  0.90037297    -0.02100
C1246       C  0.54172360  0.91913275  0.86863456     0.02900
C1247       C  0.48511635  0.94751719  0.89559580     0.37500
C1248       C  0.56028858  0.88787585  0.90194887     0.37500
C1249       C  0.56161462  0.92078293  0.83739122     0.35900
C1250       C  0.47690375  0.90758703  0.95712941     0.35900
N1251       N  0.57740261  0.92202962  0.81247166    -0.38900
N1252       N  0.45824904  0.90357581  0.98033374    -0.38900
N1253       N  0.57642432  0.87681282  0.90300432    -0.38300
N1254       N  0.47130337  0.96102586  0.89508609    -0.38300
loop_ 
_geom_bond_atom_site_label_1 
_geom_bond_atom_site_label_2 
_geom_bond_distance 
_geom_bond_site_symmetry_2 
_ccdc_geom_bond_type 
C1            N6   1.357   1_556  A
C1          N629   1.358       .  A
C1          C586   1.482   1_556  S
N2            C3   1.359       .  A
N2          C628   1.358       .  A
C3            N4   1.356       .  A
C3          C617   1.490       .  S
N4          C632   1.355       .  A
C5            N6   1.357       .  A
C5          N631   1.355   1_554  A
C5          C600   1.485       .  S
C7           N12   1.360       .  A
C7          N635   1.357   1_554  A
C7          C544   1.514       .  S
N8            C9   1.353       .  A
N8          C634   1.358       .  A
C9           N10   1.354       .  A
C9          C575   1.474       .  S
N10         C638   1.356       .  A
C11          N12   1.360       .  A
C11         N637   1.356   1_554  A
C11         C558   1.485       .  S
N13          N14   1.319       .  A
N13          N19   1.316       .  A
N13         Mn42   2.207       .  S
N14          C21   1.353       .  A
N15          N17   1.314       .  A
N15          N16   1.318       .  A
N15         Mn31   2.187       .  S
N16          C22   1.352       .  A
N17          N18   1.317       .  A
N17         Mn42   2.194       .  S
N18          C22   1.354       .  A
N19          N20   1.321       .  A
N19         Mn31   2.197       .  S
N20          C21   1.353       .  A
C21         C502   1.485       .  S
C22         C491   1.493       .  S
N23          N29   1.315       .  A
N23          N24   1.318       .  A
N23         Mn53   2.189       .  S
N24          C32   1.349       .  A
N25          N26   1.318       .  A
N25          N27   1.315       .  A
N25         Mn31   2.195   1_565  S
N26          C33   1.352       .  A
N27          N28   1.319       .  A
N27         Mn53   2.193       .  S
N28          C33   1.352       .  A
N29          N30   1.321       .  A
N29         Mn31   2.201   1_565  S
N30          C32   1.353       .  A
Mn31        Cl55   2.546       .  S
C32         C603   1.475       .  S
C33         C614   1.480       .  S
N34          N35   1.323       .  A
N34          N40   1.314       .  A
N34         Mn42   2.211       .  S
N35          C43   1.357       .  A
N36          N38   1.315       .  A
N36          N37   1.318       .  A
N36         Mn54   2.192       .  S
N37          C44   1.351       .  A
N38          N39   1.319       .  A
N38         Mn42   2.195       .  S
N39          C44   1.351       .  A
N40          N41   1.315       .  A
N40         Mn54   2.182       .  S
N41          C43   1.349       .  A
Mn42        Cl55   2.546       .  S
C43         C519   1.488       .  S
C44         C530   1.475       .  S
N45          N46   1.319       .  A
N45          N51   1.312   1_565  A
N45         Mn53   2.198       .  S
N46          C56   1.356       .  A
N47          N48   1.320       .  A
N47          N49   1.314       .  A
N47         Mn54   2.193       .  S
N48          C57   1.354       .  A
N49          N50   1.318   1_545  A
N49         Mn53   2.198   1_545  S
N50          C57   1.353   1_565  A
N51          N52   1.317       .  A
N51         Mn54   2.186       .  S
N52          C56   1.353   1_545  A
Mn53        Cl55   2.543   1_565  S
Mn54        Cl55   2.542       .  S
C56         C572   1.502       .  S
C57         C561   1.491   1_545  S
C58          N59   1.355       .  A
C58         N690   1.360       .  A
C58        C1101   1.477       .  S
N59          C60   1.355       .  A
C60          N61   1.354       .  A
C60         C533   1.475       .  S
N61         C689   1.356       .  A
C62          N63   1.362       .  A
C62         N688   1.356       .  A
C62         C516   1.493       .  S
N63         C685   1.360       .  A
C64          N69   1.351   1_556  A
C64         N692   1.359       .  A
C64         C463   1.472       .  S
N65          C66   1.359       .  A
N65         C691   1.359       .  A
C66          N67   1.357       .  A
C66         C505   1.476       .  S
N67         C695   1.357       .  A
C68          N69   1.353       .  A
C68         N694   1.357       .  A
C68         C488   1.478       .  S
N70          N71   1.316       .  A
N70          N76   1.315       .  A
N70         Mn99   2.187       .  S
N71          C78   1.351       .  A
N72          N74   1.316       .  A
N72          N73   1.320       .  A
N72         Mn88   2.199       .  S
N73          C79   1.353       .  A
N74          N75   1.317       .  A
N74         Mn99   2.189       .  S
N75          C79   1.351       .  A
N76          N77   1.322       .  A
N76         Mn88   2.209       .  S
N77          C78   1.357       .  A
C78         C446   1.494       .  S
C79         C435   1.480       .  S
N80          N86   1.315       .  A
N80          N81   1.316       .  A
N80        Mn110   2.188       .  S
N81          C89   1.350       .  A
N82          N83   1.320       .  A
N82          N84   1.314       .  A
N82         Mn88   2.197       .  S
N83          C90   1.354       .  A
N84          N85   1.318       .  A
N84        Mn110   2.191       .  S
N85          C90   1.352       .  A
N86          N87   1.324       .  A
N86         Mn88   2.213       .  S
N87          C89   1.357       .  A
Mn88       Cl112   2.556       .  S
C89         C407   1.485       .  S
C90         C418   1.488       .  S
N91          N92   1.318       .  A
N91          N97   1.313       .  A
N91         Mn99   2.196   1_655  S
N92         C100   1.355       .  A
N93          N95   1.315       .  A
N93          N94   1.322       .  A
N93        Mn111   2.206       .  S
N94         C101   1.356       .  A
N95          N96   1.318       .  A
N95         Mn99   2.198   1_655  S
N96         C101   1.353       .  A
N97          N98   1.320       .  A
N97        Mn111   2.202       .  S
N98         C100   1.356       .  A
Mn99       Cl112   2.537       .  S
C100        C351   1.506       .  S
C101        C362   1.493       .  S
N102        N103   1.318       .  A
N102        N108   1.315   1_455  A
N102       Mn110   2.186       .  S
N103        C113   1.351   1_455  A
N104        N105   1.320       .  A
N104        N106   1.315   1_655  A
N104       Mn111   2.203       .  S
N105        C114   1.354       .  A
N106        N107   1.318       .  A
N106       Mn110   2.189       .  S
N107        C114   1.350   1_455  A
N108        N109   1.318       .  A
N108       Mn111   2.198       .  S
N109        C113   1.353       .  A
Mn110      Cl112   2.539       .  S
Mn111      Cl112   2.553   1_655  S
C113        C393   1.482       .  S
C114        C376   1.481       .  S
C115        N120   1.359       .  A
C115        N743   1.358   1_554  A
C115        C334   1.475       .  S
N116        C117   1.358       .  A
N116        C742   1.358       .  A
C117        N745   1.355       .  A
C117        C421   1.492       .  S
N118        C119   1.354   1_556  A
N118        C744   1.355       .  A
C119        N120   1.358       .  A
C119        C404   1.480       .  S
C121        N122   1.358       .  A
C121        N753   1.357   1_554  A
C121        C460   1.471       .  S
N122        C123   1.358       .  A
C123        N124   1.355       .  A
C123        C379   1.479       .  S
N124        C752   1.355   1_554  A
C125        N126   1.355       .  A
C125        N751   1.355       .  A
C125        C390   1.485       .  S
N126        C748   1.357       .  A
C127        N132   1.356       .  A
C127        N755   1.358   1_554  A
C127        C320   1.478       .  S
N128        C129   1.361       .  A
N128        C754   1.358       .  A
C129        N757   1.360       .  A
C129        C365   1.496       .  S
N130        C131   1.359       .  A
N130        C756   1.360   1_554  A
C131        N132   1.356       .  A
C131        C348   1.478       .  S
C133        N134   1.361       .  A
C133        N765   1.359   1_554  A
C133        C547   1.512       .  S
N134        C135   1.361       .  A
C135        N136   1.356       .  A
C135        C432   1.491       .  S
N136        C764   1.354   1_554  A
C137        N138   1.354       .  A
C137        N763   1.354       .  A
C137        C449   1.478       .  S
N138        C760   1.359       .  A
N139        N140   1.321       .  A
N139        N145   1.314       .  A
N139       Mn168   2.198       .  S
N140        C147   1.354       .  A
N141        N143   1.316       .  A
N141        N142   1.317       .  A
N141       Mn157   2.192       .  S
N142        C148   1.349       .  A
N143        N144   1.323       .  A
N143       Mn168   2.212       .  S
N144        C148   1.355       .  A
N145        N146   1.318       .  A
N145       Mn157   2.199       .  S
N146        C147   1.353       .  A
C147        C306   1.493       .  S
C148        C295   1.480       .  S
N149        N155   1.314       .  A
N149        N150   1.322       .  A
N149       Mn179   2.205       .  S
N150        C158   1.355       .  A
N151        N152   1.318       .  A
N151        N153   1.315       .  A
N151       Mn157   2.193       .  S
N152        C159   1.351       .  A
N153        N154   1.322       .  A
N153       Mn179   2.208       .  S
N154        C159   1.355       .  A
N155        N156   1.320       .  A
N155       Mn157   2.204       .  S
N156        C158   1.354       .  A
Mn157      Cl181   2.530       .  S
C158        C267   1.500       .  S
C159        C281   1.488       .  S
N160        N161   1.321       .  A
N160        N166   1.314       .  A
N160       Mn168   2.197       .  S
N161        C169   1.355       .  A
N162        N164   1.316       .  A
N162        N163   1.317       .  A
N162       Mn180   2.192       .  S
N163        C170   1.349       .  A
N164        N165   1.323       .  A
N164       Mn168   2.211       .  S
N165        C170   1.354       .  A
N166        N167   1.316       .  A
N166       Mn180   2.187       .  S
N167        C169   1.351       .  A
Mn168      Cl181   2.568       .  S
C169        C208   1.491       .  S
C170        C222   1.477       .  S
N171        N172   1.321       .  A
N171        N177   1.313       .  A
N171       Mn179   2.202       .  S
N172        C182   1.355       .  A
N173        N174   1.319       .  A
N173        N175   1.316       .  A
N173       Mn180   2.195       .  S
N174        C183   1.351       .  A
N175        N176   1.322       .  A
N175       Mn179   2.210       .  S
N176        C183   1.355       .  A
N177        N178   1.318       .  A
N177       Mn180   2.192       .  S
N178        C182   1.352       .  A
Mn179      Cl181   2.564       .  S
Mn180      Cl181   2.528       .  S
C182        C253   1.493       .  S
C183        C236   1.487       .  S
C184        N185   1.358   1_556  A
C184        N816   1.359       .  A
C184        C477   1.477       .  S
N185        C186   1.358       .  A
C186        N187   1.356   1_554  A
C186        C309   1.499       .  S
N187        C815   1.357       .  A
C188        N189   1.359       .  A
C188        N814   1.357       .  A
C188        C292   1.484       .  S
N189        C811   1.359       .  A
C190        N191   1.358       .  A
C190        N822   1.356   1_554  A
C190        C337   1.476       .  S
N191        C192   1.359       .  A
C192        N193   1.356   1_554  A
C192        C225   1.484       .  S
N193        C821   1.356       .  A
C194        N195   1.358       .  A
C194        N820   1.356       .  A
C194        C211   1.489       .  S
N195        C817   1.356       .  A
C196        N197   1.358       .  A
C196        N828   1.360   1_554  A
C196        C323   1.479       .  S
N197        C198   1.356       .  A
C198        N199   1.356   1_554  A
C198        C278   1.478       .  S
N199        C827   1.358       .  A
C200        N201   1.361       .  A
C200        N826   1.358       .  A
C200        C264   1.496       .  S
N201        C823   1.360       .  A
C202        N203   1.358       .  A
C202        N834   1.359   1_554  A
C202        C589   1.481   1_554  S
N203        C204   1.358       .  A
C204        N205   1.356       .  A
C204        C250   1.487       .  S
N205        C833   1.356   1_554  A
C206        N207   1.357       .  A
C206        N832   1.356       .  A
C206        C239   1.480       .  S
N207        C829   1.359       .  A
C208        C209   1.417       .  A
C208        C213   1.416       .  A
C209        C210   1.408       .  A
C209        C214   1.453       .  S
C210        C211   1.416       .  A
C210        C217   1.454       .  S
C211        C212   1.416       .  A
C212        C213   1.412       .  A
C212        C215   1.452       .  S
C213        C216   1.452       .  S
C214        N221   1.158       .  T
C215        N847   1.157       .  T
C216        N218   1.158       .  T
C217        N219   1.158       .  T
N220        C842   1.157       .  T
C222        C223   1.410       .  A
C222        C227   1.411       .  A
C223        C224   1.408       .  A
C223        C228   1.453       .  S
C224        C225   1.415       .  A
C224        C231   1.451       .  S
C225        C226   1.413       .  A
C226        C227   1.412       .  A
C226        C229   1.451       .  S
C227        C230   1.450       .  S
C228        N235   1.157       .  T
C229        N234   1.157       .  T
C230        N232   1.157       .  T
C231        N233   1.157       .  T
C236        C237   1.416       .  A
C236        C241   1.415       .  A
C237        C238   1.409       .  A
C237        C242   1.452       .  S
C238        C239   1.411       .  A
C238        C245   1.452       .  S
C239        C240   1.410       .  A
C240        C241   1.412       .  A
C240        C243   1.451       .  S
C241        C244   1.451       .  S
C242        N249   1.157       .  T
C243        N248   1.157       .  T
C244        N246   1.157       .  T
C245        N874   1.157       .  T
N247        C872   1.157       .  T
C250        C251   1.413       .  A
C250        C255   1.413       .  A
C251        C252   1.409       .  A
C251        C256   1.453       .  S
C252        C253   1.418       .  A
C252        C259   1.452       .  S
C253        C254   1.417       .  A
C254        C255   1.412       .  A
C254        C257   1.451       .  S
C255        C258   1.452       .  S
C256        N263   1.157       .  T
C257        N262   1.158       .  T
C258        N260   1.157       .  T
C259        N261   1.157       .  T
C264        C265   1.415       .  A
C264        C269   1.416       .  A
C265        C266   1.413       .  A
C265        C270   1.452       .  S
C266        C267   1.418       .  A
C266        C273   1.452       .  S
C267        C268   1.418       .  A
C268        C269   1.414       .  A
C268        C271   1.452       .  S
C269        C272   1.453       .  S
C270        N277   1.158       .  T
C271        N276   1.158       .  T
C272        N274   1.157       .  T
C273        N275   1.157       .  T
C278        C279   1.410       .  A
C278        C283   1.408       .  A
C279        C280   1.413       .  A
C279        C284   1.450       .  S
C280        C281   1.416       .  A
C280        C287   1.451       .  S
C281        C282   1.417       .  A
C282        C283   1.407       .  A
C282        C285   1.451       .  S
C283        C286   1.451       .  S
C284        N291   1.157       .  T
C285        N290   1.157       .  T
C286        N288   1.157       .  T
C287        N289   1.157       .  T
C292        C293   1.414       .  A
C292        C297   1.413       .  A
C293        C294   1.406       .  A
C293        C298   1.451       .  S
C294        C295   1.411       .  A
C294        C301   1.453       .  S
C295        C296   1.412       .  A
C296        C297   1.414       .  A
C296        C299   1.450       .  S
C297        C300   1.450       .  S
C298        N932   1.156       .  T
C299        N304   1.157       .  T
C300        N302   1.157       .  T
C301        N303   1.157       .  T
N305        C925   1.156       .  T
C306        C307   1.415       .  A
C306        C311   1.415       .  A
C307        C308   1.413       .  A
C307        C312   1.452       .  S
C308        C309   1.419       .  A
C308        C315   1.453       .  S
C309        C310   1.419       .  A
C310        C311   1.411       .  A
C310        C313   1.452       .  S
C311        C314   1.453       .  S
C312        N319   1.158       .  T
C313        N318   1.157       .  T
C314        N316   1.157       .  T
C315        N317   1.158       .  T
C320        C321   1.410       .  A
C320        C952   1.411   1_554  A
C321        C322   1.410       .  A
C321        C326   1.451       .  S
C322        C323   1.413       .  A
C322        C329   1.451       .  S
C323        C951   1.410   1_554  A
C324        C325   1.412       .  A
C324        C950   1.410       .  A
C324        C327   1.450       .  S
C325        C947   1.411       .  A
C325        C328   1.450       .  S
C326        N333   1.157       .  T
C327        N332   1.157       .  T
C328        N330   1.157       .  T
C329        N331   1.157       .  T
C334        C335   1.413   1_554  A
C334        C966   1.409       .  A
C335        C336   1.411       .  A
C335        C340   1.451       .  S
C336        C337   1.410   1_556  A
C336        C343   1.450       .  S
C337        C965   1.412       .  A
C338        C339   1.408       .  A
C338        C964   1.412       .  A
C338        C341   1.452       .  S
C339        C961   1.408       .  A
C339        C342   1.451       .  S
C340        N347   1.157       .  T
C341        N346   1.157       .  T
C342        N344   1.157       .  T
C343        N345   1.157       .  T
C348        C349   1.406       .  A
C348        C353   1.406       .  A
C349        C350   1.412       .  A
C349        C354   1.453       .  S
C350        C351   1.425       .  A
C350        C357   1.452       .  S
C351        C352   1.425       .  A
C352        C353   1.412       .  A
C352        C355   1.451       .  S
C353        C356   1.452       .  S
C354        N361   1.157       .  T
C355        N360   1.158       .  T
C356        N358   1.157       .  T
C357        N359   1.158       .  T
C362        C363   1.416       .  A
C362        C367   1.414       .  A
C363        C364   1.412       .  A
C363        C368   1.452       .  S
C364        C365   1.416       .  A
C364        C371   1.452       .  S
C365        C366   1.417       .  A
C366        C367   1.414       .  A
C366        C369   1.450       .  S
C367        C370   1.452       .  S
C368        N375   1.157       .  T
C369        N374   1.157       .  T
C370        N372   1.158       .  T
C371        N373   1.157       .  T
C376        C377   1.411       .  A
C376        C381   1.415       .  A
C377        C378   1.407       .  A
C377        C382   1.451       .  S
C378        C379   1.414       .  A
C378        C385   1.452       .  S
C379        C380   1.411       .  A
C380        C381   1.410       .  A
C380        C383   1.451       .  S
C381        C384   1.451       .  S
C382        N389   1.157       .  T
C383        N388   1.157       .  T
C384        N386   1.157   1_655  T
C385        N387   1.157       .  T
C390        C391   1.415       .  A
C390        C395   1.416       .  A
C391        C392   1.408       .  A
C391        C396   1.452   1_655  S
C392        C393   1.414       .  A
C392        C399   1.452   1_655  S
C393        C394   1.413       .  A
C394        C395   1.408       .  A
C394        C397   1.453       .  S
C395        C398   1.451       .  S
C396       N1030   1.157       .  T
C397        N402   1.157       .  T
C398        N400   1.157       .  T
C399        N401   1.157       .  T
N403       C1023   1.157       .  T
C404        C405   1.411       .  A
C404        C409   1.412       .  A
C405        C406   1.407       .  A
C405        C410   1.452       .  S
C406        C407   1.415       .  A
C406        C413   1.452       .  S
C407        C408   1.415       .  A
C408        C409   1.414       .  A
C408        C411   1.450       .  S
C409        C412   1.451       .  S
C410       N1044   1.157       .  T
C411        N416   1.157       .  T
C412        N414   1.157       .  T
C413        N415   1.157       .  T
N417       C1037   1.157       .  T
C418        C419   1.414       .  A
C418        C423   1.415       .  A
C419        C420   1.409       .  A
C419        C424   1.452       .  S
C420        C421   1.418       .  A
C420        C427   1.453       .  S
C421        C422   1.417       .  A
C422        C423   1.410       .  A
C422        C425   1.452       .  S
C423        C426   1.453       .  S
C424        N431   1.157       .  T
C425        N430   1.157       .  T
C426        N428   1.157       .  T
C427       N1056   1.157       .  T
N429       C1054   1.157       .  T
C432        C433   1.417       .  A
C432        C437   1.419       .  A
C433        C434   1.407       .  A
C433        C438   1.449       .  S
C434        C435   1.410       .  A
C434        C441   1.454       .  S
C435        C436   1.411       .  A
C436        C437   1.411       .  A
C436        C439   1.452       .  S
C437        C440   1.451       .  S
C438       N1072   1.156       .  T
C439        N444   1.157       .  T
C440        N442   1.158       .  T
C441        N443   1.157       .  T
N445       C1065   1.156       .  T
C446        C447   1.419       .  A
C446        C451   1.420       .  A
C447        C448   1.412       .  A
C447        C452   1.451       .  S
C448        C449   1.411       .  A
C448        C455   1.452       .  S
C449        C450   1.406       .  A
C450        C451   1.406       .  A
C450        C453   1.451       .  S
C451        C454   1.452       .  S
C452        N459   1.157       .  T
C453        N458   1.157       .  T
C454        N456   1.157       .  T
C455        N457   1.157       .  T
C460        C465   1.409   1_554  A
C460       C1088   1.409       .  A
C461        C462   1.411       .  A
C461       C1087   1.409       .  A
C461        C466   1.450       .  S
C462       C1090   1.412       .  A
C462        C469   1.450       .  S
C463        C464   1.412       .  A
C463       C1089   1.412   1_556  A
C464        C465   1.404       .  A
C464        C467   1.452       .  S
C465        C468   1.452       .  S
C466        N473   1.157       .  T
C467        N472   1.157       .  T
C468        N470   1.157       .  T
C469        N471   1.157       .  T
C474        C685   1.477   1_556  S
C474        C479   1.409   1_556  A
C474       C1102   1.413       .  A
C475        C476   1.410       .  A
C475       C1101   1.413       .  A
C475        C480   1.451       .  S
C476       C1104   1.409       .  A
C476        C483   1.450       .  S
C477        C478   1.413   1_556  A
C477       C1103   1.409       .  A
C478        C479   1.410       .  A
C478        C481   1.451       .  S
C479        C482   1.450       .  S
C480        N487   1.157       .  T
C481        N486   1.157       .  T
C482        N484   1.157       .  T
C483        N485   1.157       .  T
C488        C489   1.408       .  A
C488        C493   1.414       .  A
C489        C490   1.409       .  A
C489        C494   1.453       .  S
C490        C491   1.422       .  A
C490        C497   1.451       .  S
C491        C492   1.418       .  A
C492        C493   1.406       .  A
C492        C495   1.453       .  S
C493        C496   1.454       .  S
C494        N501   1.157       .  T
C495        N500   1.158       .  T
C496        N498   1.158       .  T
C497        N499   1.158       .  T
C502        C503   1.416       .  A
C502        C507   1.414       .  A
C503        C504   1.412       .  A
C503        C508   1.450       .  S
C504        C505   1.409       .  A
C504        C511   1.451       .  S
C505        C506   1.411       .  A
C506        C507   1.408       .  A
C506        C509   1.452       .  S
C507        C510   1.452       .  S
C508        N515   1.157       .  T
C509       N1141   1.157       .  T
C510        N512   1.157       .  T
C511        N513   1.157       .  T
N514       C1136   1.157       .  T
C516        C517   1.419       .  A
C516        C521   1.415       .  A
C517        C518   1.413       .  A
C517        C522   1.452       .  S
C518        C519   1.412       .  A
C518        C525   1.452       .  S
C519        C520   1.416       .  A
C520        C521   1.409       .  A
C520        C523   1.453       .  S
C521        C524   1.452       .  S
C522       N1156   1.157       .  T
C523        N528   1.157       .  T
C524        N526   1.158       .  T
C525        N527   1.158       .  T
N529       C1149   1.157       .  T
C530        C531   1.411       .  A
C530        C535   1.412       .  A
C531        C532   1.407       .  A
C531        C536   1.452       .  S
C532        C533   1.412       .  A
C532        C539   1.452       .  S
C533        C534   1.411       .  A
C534        C535   1.408       .  A
C534        C537   1.452       .  S
C535        C538   1.451       .  S
C536        N543   1.157       .  T
C537        N542   1.157       .  T
C538        N540   1.157       .  T
C539       N1168   1.157       .  T
N541       C1166   1.157       .  T
C544        C549   1.423       .  A
C544       C1172   1.424   1_554  A
C545        C546   1.412       .  A
C545       C1171   1.424       .  A
C545        C550   1.454       .  S
C546       C1174   1.420       .  A
C546        C553   1.454       .  S
C547        C548   1.420       .  A
C547       C1173   1.421   1_554  A
C548        C549   1.415       .  A
C548        C551   1.452       .  S
C549        C552   1.452       .  S
C550        N557   1.158       .  T
C551        N556   1.158       .  T
C552        N554   1.158       .  T
C553        N555   1.158       .  T
C558        C559   1.413       .  A
C558        C563   1.413   1_565  A
C559        C560   1.409       .  A
C559        C564   1.453       .  S
C560        C561   1.417       .  A
C560        C567   1.452       .  S
C561        C562   1.417   1_565  A
C562        C563   1.411       .  A
C562        C565   1.453       .  S
C563        C566   1.451       .  S
C564        N571   1.157       .  T
C565        N570   1.158       .  T
C566       N1195   1.157       .  T
C567        N569   1.157       .  T
N568       C1193   1.157       .  T
C572        C573   1.426   1_565  A
C572        C577   1.423       .  A
C573        C574   1.410       .  A
C573        C578   1.452       .  S
C574        C575   1.405   1_545  A
C574        C581   1.452       .  S
C575        C576   1.407       .  A
C576        C577   1.409       .  A
C576        C579   1.453       .  S
C577        C580   1.452       .  S
C578        N585   1.158       .  T
C579        N584   1.157       .  T
C580        N582   1.158       .  T
C581        N583   1.157       .  T
C586        C587   1.415       .  A
C586       C1218   1.412   1_554  A
C587        C588   1.410       .  A
C587        C592   1.452       .  S
C588        C589   1.411   1_554  A
C588        C595   1.451       .  S
C589       C1217   1.413       .  A
C590        C591   1.410       .  A
C590       C1216   1.413       .  A
C590        C593   1.452       .  S
C591       C1213   1.412       .  A
C591        C594   1.451       .  S
C592        N599   1.157       .  T
C593        N598   1.157       .  T
C594        N596   1.157       .  T
C595        N597   1.157       .  T
C600        C601   1.417       .  A
C600        C605   1.415       .  A
C601        C602   1.409       .  A
C601        C606   1.452       .  S
C602        C603   1.409       .  A
C602        C609   1.452   1_565  S
C603        C604   1.410       .  A
C604        C605   1.408       .  A
C604        C607   1.452       .  S
C605        C608   1.452       .  S
C606       N1240   1.157       .  T
C607        N612   1.157       .  T
C608        N610   1.157       .  T
C609        N611   1.157       .  T
N613       C1233   1.157       .  T
C614        C615   1.411       .  A
C614        C619   1.412       .  A
C615        C616   1.409       .  A
C615        C620   1.452       .  S
C616        C617   1.418       .  A
C616        C623   1.452       .  S
C617        C618   1.418       .  A
C618        C619   1.409       .  A
C618        C621   1.452       .  S
C619        C622   1.453       .  S
C620        N627   1.157       .  T
C621        N626   1.158       .  T
C622        N624   1.157       .  T
C623        N625   1.157       .  T
C628        N633   1.357       .  A
C628       C1213   1.482       .  S
N629        C630   1.359       .  A
C630        N631   1.357       .  A
C630       C1244   1.490       .  S
C632        N633   1.357       .  A
C632       C1227   1.484       .  S
C634        N639   1.360       .  A
C634       C1171   1.514       .  S
N635        C636   1.353       .  A
C636        N637   1.354       .  A
C636       C1202   1.473       .  S
C638        N639   1.360       .  A
C638       C1185   1.485       .  S
N640        N641   1.319       .  A
N640        N646   1.316       .  A
N640       Mn669   2.207       .  S
N641        C648   1.353       .  A
N642        N644   1.314       .  A
N642        N643   1.318       .  A
N642       Mn658   2.188       .  S
N643        C649   1.352       .  A
N644        N645   1.317       .  A
N644       Mn669   2.194       .  S
N645        C649   1.354       .  A
N646        N647   1.321       .  A
N646       Mn658   2.197       .  S
N647        C648   1.353       .  A
C648       C1129   1.485       .  S
C649       C1118   1.493       .  S
N650        N656   1.315       .  A
N650        N651   1.318       .  A
N650       Mn680   2.189       .  S
N651        C659   1.349       .  A
N652        N653   1.318       .  A
N652        N654   1.315       .  A
N652       Mn658   2.196   1_565  S
N653        C660   1.352       .  A
N654        N655   1.319       .  A
N654       Mn680   2.193       .  S
N655        C660   1.352       .  A
N656        N657   1.321       .  A
N656       Mn658   2.200   1_565  S
N657        C659   1.353       .  A
Mn658      Cl682   2.546       .  S
C659       C1230   1.475       .  S
C660       C1241   1.480       .  S
N661        N662   1.323       .  A
N661        N667   1.314       .  A
N661       Mn669   2.211       .  S
N662        C670   1.357       .  A
N663        N665   1.315       .  A
N663        N664   1.318       .  A
N663       Mn681   2.192       .  S
N664        C671   1.351       .  A
N665        N666   1.319       .  A
N665       Mn669   2.196       .  S
N666        C671   1.352       .  A
N667        N668   1.315       .  A
N667       Mn681   2.182       .  S
N668        C670   1.349       .  A
Mn669      Cl682   2.546       .  S
C670       C1146   1.488       .  S
C671       C1157   1.475       .  S
N672        N673   1.319       .  A
N672        N678   1.312   1_565  A
N672       Mn680   2.198       .  S
N673        C683   1.356       .  A
N674        N675   1.320       .  A
N674        N676   1.314       .  A
N674       Mn681   2.193       .  S
N675        C684   1.354       .  A
N676        N677   1.318   1_545  A
N676       Mn680   2.197   1_545  S
N677        C684   1.353   1_565  A
N678        N679   1.317       .  A
N678       Mn681   2.186       .  S
N679        C683   1.353   1_545  A
Mn680      Cl682   2.543   1_565  S
Mn681      Cl682   2.541       .  S
C683       C1199   1.502       .  S
C684       C1188   1.491   1_545  S
C685        N686   1.355   1_554  A
N686        C687   1.355       .  A
C687        N688   1.354   1_556  A
C687       C1160   1.475       .  S
C689        N690   1.362       .  A
C689       C1143   1.492       .  S
C691        N696   1.351       .  A
C691       C1090   1.472       .  S
N692        C693   1.359       .  A
C693        N694   1.356   1_556  A
C693       C1132   1.476       .  S
C695        N696   1.353       .  A
C695       C1115   1.478       .  S
N697        N698   1.316       .  A
N697        N703   1.315       .  A
N697       Mn726   2.187       .  S
N698        C705   1.351       .  A
N699        N701   1.316       .  A
N699        N700   1.320       .  A
N699       Mn715   2.199       .  S
N700        C706   1.353       .  A
N701        N702   1.317       .  A
N701       Mn726   2.189       .  S
N702        C706   1.351       .  A
N703        N704   1.322       .  A
N703       Mn715   2.209       .  S
N704        C705   1.357       .  A
C705       C1073   1.494       .  S
C706       C1062   1.481       .  S
N707        N713   1.315       .  A
N707        N708   1.316       .  A
N707       Mn737   2.188       .  S
N708        C716   1.350       .  A
N709        N710   1.320       .  A
N709        N711   1.314       .  A
N709       Mn715   2.198       .  S
N710        C717   1.354       .  A
N711        N712   1.318       .  A
N711       Mn737   2.191       .  S
N712        C717   1.352       .  A
N713        N714   1.324       .  A
N713       Mn715   2.213       .  S
N714        C716   1.357       .  A
Mn715      Cl739   2.556       .  S
C716       C1034   1.485       .  S
C717       C1045   1.488       .  S
N718        N719   1.318       .  A
N718        N724   1.313       .  A
N718       Mn726   2.196   1_655  S
N719        C727   1.355       .  A
N720        N722   1.315       .  A
N720        N721   1.322       .  A
N720       Mn738   2.206       .  S
N721        C728   1.356       .  A
N722        N723   1.318       .  A
N722       Mn726   2.197   1_655  S
N723        C728   1.352       .  A
N724        N725   1.320       .  A
N724       Mn738   2.202       .  S
N725        C727   1.356       .  A
Mn726      Cl739   2.537       .  S
C727        C978   1.506       .  S
C728        C989   1.492       .  S
N729        N730   1.318       .  A
N729        N735   1.315   1_455  A
N729       Mn737   2.186       .  S
N730        C740   1.351   1_455  A
N731        N732   1.320       .  A
N731        N733   1.316   1_655  A
N731       Mn738   2.203       .  S
N732        C741   1.354       .  A
N733        N734   1.318       .  A
N733       Mn737   2.189       .  S
N734        C741   1.350   1_455  A
N735        N736   1.318       .  A
N735       Mn738   2.198       .  S
N736        C740   1.353       .  A
Mn737      Cl739   2.539       .  S
Mn738      Cl739   2.553   1_655  S
C740       C1020   1.482       .  S
C741       C1003   1.480       .  S
C742        N747   1.359       .  A
C742        C961   1.475       .  S
N743        C744   1.358       .  A
C744       C1048   1.492       .  S
N745        C746   1.354       .  A
C746        N747   1.358       .  A
C746       C1031   1.480       .  S
C748        N749   1.358       .  A
C748       C1087   1.471       .  S
N749        C750   1.358       .  A
C750        N751   1.355       .  A
C750       C1006   1.479       .  S
C752        N753   1.355       .  A
C752       C1017   1.485       .  S
C754        N759   1.356       .  A
C754        C947   1.478       .  S
N755        C756   1.361       .  A
C756        C992   1.496       .  S
N757        C758   1.359       .  A
C758        N759   1.356       .  A
C758        C975   1.479       .  S
C760        N761   1.361       .  A
C760       C1174   1.512       .  S
N761        C762   1.361       .  A
C762        N763   1.356       .  A
C762       C1059   1.491       .  S
C764        N765   1.354       .  A
C764       C1076   1.478       .  S
N766        N767   1.321       .  A
N766        N772   1.314       .  A
N766       Mn795   2.198       .  S
N767        C774   1.354       .  A
N768        N770   1.316       .  A
N768        N769   1.317       .  A
N768       Mn784   2.192       .  S
N769        C775   1.349       .  A
N770        N771   1.323       .  A
N770       Mn795   2.212       .  S
N771        C775   1.355       .  A
N772        N773   1.318       .  A
N772       Mn784   2.200       .  S
N773        C774   1.353       .  A
C774        C933   1.492       .  S
C775        C922   1.480       .  S
N776        N782   1.314       .  A
N776        N777   1.322       .  A
N776       Mn806   2.205       .  S
N777        C785   1.355       .  A
N778        N779   1.318       .  A
N778        N780   1.315       .  A
N778       Mn784   2.193       .  S
N779        C786   1.351       .  A
N780        N781   1.322       .  A
N780       Mn806   2.208       .  S
N781        C786   1.355       .  A
N782        N783   1.320       .  A
N782       Mn784   2.205       .  S
N783        C785   1.355       .  A
Mn784      Cl808   2.530       .  S
C785        C894   1.500       .  S
C786        C908   1.487       .  S
N787        N788   1.321       .  A
N787        N793   1.314       .  A
N787       Mn795   2.197       .  S
N788        C796   1.355       .  A
N789        N791   1.316       .  A
N789        N790   1.317       .  A
N789       Mn807   2.192       .  S
N790        C797   1.349       .  A
N791        N792   1.323       .  A
N791       Mn795   2.210       .  S
N792        C797   1.354       .  A
N793        N794   1.316       .  A
N793       Mn807   2.187       .  S
N794        C796   1.351       .  A
Mn795      Cl808   2.567       .  S
C796        C835   1.491       .  S
C797        C849   1.477       .  S
N798        N799   1.321       .  A
N798        N804   1.313       .  A
N798       Mn806   2.202       .  S
N799        C809   1.355       .  A
N800        N801   1.318       .  A
N800        N802   1.316       .  A
N800       Mn807   2.195       .  S
N801        C810   1.351       .  A
N802        N803   1.322       .  A
N802       Mn806   2.210       .  S
N803        C810   1.356       .  A
N804        N805   1.318       .  A
N804       Mn807   2.192       .  S
N805        C809   1.352       .  A
Mn806      Cl808   2.564       .  S
Mn807      Cl808   2.528       .  S
C809        C880   1.493       .  S
C810        C863   1.487       .  S
C811        N812   1.358       .  A
C811       C1104   1.477       .  S
N812        C813   1.358       .  A
C813        N814   1.356       .  A
C813        C936   1.499       .  S
C815        N816   1.359       .  A
C815        C919   1.483       .  S
C817        N818   1.358       .  A
C817        C964   1.476       .  S
N818        C819   1.359       .  A
C819        N820   1.356       .  A
C819        C852   1.484       .  S
C821        N822   1.358       .  A
C821        C838   1.489       .  S
C823        N824   1.358       .  A
C823        C950   1.479       .  S
N824        C825   1.356       .  A
C825        N826   1.356       .  A
C825        C905   1.478       .  S
C827        N828   1.361       .  A
C827        C891   1.496       .  S
C829        N830   1.358       .  A
C829       C1216   1.481       .  S
N830        C831   1.358       .  A
C831        N832   1.356       .  A
C831        C877   1.486       .  S
C833        N834   1.357       .  A
C833        C866   1.479       .  S
C835        C836   1.417       .  A
C835        C840   1.416       .  A
C836        C837   1.408       .  A
C836        C841   1.453       .  S
C837        C838   1.416       .  A
C837        C844   1.454       .  S
C838        C839   1.416       .  A
C839        C840   1.412       .  A
C839        C842   1.452       .  S
C840        C843   1.452       .  S
C841        N848   1.158       .  T
C843        N845   1.158       .  T
C844        N846   1.158       .  T
C849        C850   1.410       .  A
C849        C854   1.411       .  A
C850        C851   1.408       .  A
C850        C855   1.453       .  S
C851        C852   1.415       .  A
C851        C858   1.451       .  S
C852        C853   1.413       .  A
C853        C854   1.412       .  A
C853        C856   1.451       .  S
C854        C857   1.450       .  S
C855        N862   1.157       .  T
C856        N861   1.157       .  T
C857        N859   1.157       .  T
C858        N860   1.157       .  T
C863        C864   1.416       .  A
C863        C868   1.416       .  A
C864        C865   1.409       .  A
C864        C869   1.452       .  S
C865        C866   1.410       .  A
C865        C872   1.452       .  S
C866        C867   1.410       .  A
C867        C868   1.412       .  A
C867        C870   1.451       .  S
C868        C871   1.450       .  S
C869        N876   1.157       .  T
C870        N875   1.157       .  T
C871        N873   1.157       .  T
C877        C878   1.413       .  A
C877        C882   1.413       .  A
C878        C879   1.409       .  A
C878        C883   1.453       .  S
C879        C880   1.418       .  A
C879        C886   1.452       .  S
C880        C881   1.417       .  A
C881        C882   1.412       .  A
C881        C884   1.451       .  S
C882        C885   1.452       .  S
C883        N890   1.157       .  T
C884        N889   1.158       .  T
C885        N887   1.157       .  T
C886        N888   1.158       .  T
C891        C892   1.415       .  A
C891        C896   1.416       .  A
C892        C893   1.413       .  A
C892        C897   1.452       .  S
C893        C894   1.418       .  A
C893        C900   1.452       .  S
C894        C895   1.417       .  A
C895        C896   1.414       .  A
C895        C898   1.452       .  S
C896        C899   1.453       .  S
C897        N904   1.158       .  T
C898        N903   1.158       .  T
C899        N901   1.157       .  T
C900        N902   1.157       .  T
C905        C906   1.409       .  A
C905        C910   1.408       .  A
C906        C907   1.413       .  A
C906        C911   1.450       .  S
C907        C908   1.416       .  A
C907        C914   1.451       .  S
C908        C909   1.417       .  A
C909        C910   1.407       .  A
C909        C912   1.451       .  S
C910        C913   1.451       .  S
C911        N918   1.157       .  T
C912        N917   1.157       .  T
C913        N915   1.157       .  T
C914        N916   1.157       .  T
C919        C920   1.414       .  A
C919        C924   1.413       .  A
C920        C921   1.406       .  A
C920        C925   1.451       .  S
C921        C922   1.411       .  A
C921        C928   1.453       .  S
C922        C923   1.412       .  A
C923        C924   1.414       .  A
C923        C926   1.450       .  S
C924        C927   1.450       .  S
C926        N931   1.157       .  T
C927        N929   1.157       .  T
C928        N930   1.157       .  T
C933        C934   1.414       .  A
C933        C938   1.415       .  A
C934        C935   1.412       .  A
C934        C939   1.452       .  S
C935        C936   1.420       .  A
C935        C942   1.453       .  S
C936        C937   1.420       .  A
C937        C938   1.411       .  A
C937        C940   1.452       .  S
C938        C941   1.453       .  S
C939        N946   1.158       .  T
C940        N945   1.157       .  T
C941        N943   1.157       .  T
C942        N944   1.158       .  T
C947        C948   1.410       .  A
C948        C949   1.410       .  A
C948        C953   1.451       .  S
C949        C950   1.413       .  A
C949        C956   1.451       .  S
C951        C952   1.412       .  A
C951        C954   1.450       .  S
C952        C955   1.450       .  S
C953        N960   1.157       .  T
C954        N959   1.157       .  T
C955        N957   1.157       .  T
C956        N958   1.157       .  T
C961        C962   1.413       .  A
C962        C963   1.411       .  A
C962        C967   1.451       .  S
C963        C964   1.410       .  A
C963        C970   1.450       .  S
C965        C966   1.408       .  A
C965        C968   1.452       .  S
C966        C969   1.450       .  S
C967        N974   1.157       .  T
C968        N973   1.157       .  T
C969        N971   1.157       .  T
C970        N972   1.157       .  T
C975        C976   1.407       .  A
C975        C980   1.406       .  A
C976        C977   1.412       .  A
C976        C981   1.453       .  S
C977        C978   1.425       .  A
C977        C984   1.452       .  S
C978        C979   1.424       .  A
C979        C980   1.412       .  A
C979        C982   1.451       .  S
C980        C983   1.452       .  S
C981        N988   1.157       .  T
C982        N987   1.158       .  T
C983        N985   1.157       .  T
C984        N986   1.158       .  T
C989        C990   1.415       .  A
C989        C994   1.414       .  A
C990        C991   1.412       .  A
C990        C995   1.452       .  S
C991        C992   1.417       .  A
C991        C998   1.451       .  S
C992        C993   1.418       .  A
C993        C994   1.414       .  A
C993        C996   1.450       .  S
C994        C997   1.452       .  S
C995       N1002   1.157       .  T
C996       N1001   1.157       .  T
C997        N999   1.158       .  T
C998       N1000   1.157       .  T
C1003      C1004   1.411       .  A
C1003      C1008   1.414       .  A
C1004      C1005   1.407       .  A
C1004      C1009   1.451       .  S
C1005      C1006   1.414       .  A
C1005      C1012   1.452       .  S
C1006      C1007   1.411       .  A
C1007      C1008   1.410       .  A
C1007      C1010   1.451       .  S
C1008      C1011   1.451       .  S
C1009      N1016   1.157       .  T
C1010      N1015   1.157       .  T
C1011      N1013   1.157   1_655  T
C1012      N1014   1.157       .  T
C1017      C1018   1.415       .  A
C1017      C1022   1.416       .  A
C1018      C1019   1.408       .  A
C1018      C1023   1.452   1_655  S
C1019      C1020   1.414       .  A
C1019      C1026   1.452   1_655  S
C1020      C1021   1.412       .  A
C1021      C1022   1.408       .  A
C1021      C1024   1.453       .  S
C1022      C1025   1.451       .  S
C1024      N1029   1.157       .  T
C1025      N1027   1.157       .  T
C1026      N1028   1.157       .  T
C1031      C1032   1.411       .  A
C1031      C1036   1.412       .  A
C1032      C1033   1.406       .  A
C1032      C1037   1.452       .  S
C1033      C1034   1.415       .  A
C1033      C1040   1.452       .  S
C1034      C1035   1.415       .  A
C1035      C1036   1.414       .  A
C1035      C1038   1.450       .  S
C1036      C1039   1.451       .  S
C1038      N1043   1.157       .  T
C1039      N1041   1.157       .  T
C1040      N1042   1.157       .  T
C1045      C1046   1.414       .  A
C1045      C1050   1.415       .  A
C1046      C1047   1.409       .  A
C1046      C1051   1.452       .  S
C1047      C1048   1.418       .  A
C1047      C1054   1.453       .  S
C1048      C1049   1.417       .  A
C1049      C1050   1.411       .  A
C1049      C1052   1.452       .  S
C1050      C1053   1.453       .  S
C1051      N1058   1.157       .  T
C1052      N1057   1.157       .  T
C1053      N1055   1.157       .  T
C1059      C1060   1.417       .  A
C1059      C1064   1.419       .  A
C1060      C1061   1.407       .  A
C1060      C1065   1.449       .  S
C1061      C1062   1.410       .  A
C1061      C1068   1.454       .  S
C1062      C1063   1.411       .  A
C1063      C1064   1.411       .  A
C1063      C1066   1.452       .  S
C1064      C1067   1.451       .  S
C1066      N1071   1.157       .  T
C1067      N1069   1.158       .  T
C1068      N1070   1.157       .  T
C1073      C1074   1.419       .  A
C1073      C1078   1.420       .  A
C1074      C1075   1.412       .  A
C1074      C1079   1.451       .  S
C1075      C1076   1.411       .  A
C1075      C1082   1.452       .  S
C1076      C1077   1.406       .  A
C1077      C1078   1.406       .  A
C1077      C1080   1.451       .  S
C1078      C1081   1.452       .  S
C1079      N1086   1.157       .  T
C1080      N1085   1.157       .  T
C1081      N1083   1.157       .  T
C1082      N1084   1.157       .  T
C1087      C1092   1.409       .  A
C1088      C1089   1.411       .  A
C1088      C1093   1.450       .  S
C1089      C1096   1.450       .  S
C1090      C1091   1.412       .  A
C1091      C1092   1.404       .  A
C1091      C1094   1.452       .  S
C1092      C1095   1.452       .  S
C1093      N1100   1.157       .  T
C1094      N1099   1.157       .  T
C1095      N1097   1.157       .  T
C1096      N1098   1.157       .  T
C1101      C1106   1.409       .  A
C1102      C1103   1.410       .  A
C1102      C1107   1.451       .  S
C1103      C1110   1.450       .  S
C1104      C1105   1.413       .  A
C1105      C1106   1.410       .  A
C1105      C1108   1.451       .  S
C1106      C1109   1.450       .  S
C1107      N1114   1.157       .  T
C1108      N1113   1.157       .  T
C1109      N1111   1.157       .  T
C1110      N1112   1.157       .  T
C1115      C1116   1.408       .  A
C1115      C1120   1.414       .  A
C1116      C1117   1.409       .  A
C1116      C1121   1.453       .  S
C1117      C1118   1.422       .  A
C1117      C1124   1.451       .  S
C1118      C1119   1.419       .  A
C1119      C1120   1.406       .  A
C1119      C1122   1.453       .  S
C1120      C1123   1.454       .  S
C1121      N1128   1.157       .  T
C1122      N1127   1.158       .  T
C1123      N1125   1.158       .  T
C1124      N1126   1.158       .  T
C1129      C1130   1.416       .  A
C1129      C1134   1.414       .  A
C1130      C1131   1.412       .  A
C1130      C1135   1.450       .  S
C1131      C1132   1.409       .  A
C1131      C1138   1.451       .  S
C1132      C1133   1.411       .  A
C1133      C1134   1.408       .  A
C1133      C1136   1.452       .  S
C1134      C1137   1.452       .  S
C1135      N1142   1.157       .  T
C1137      N1139   1.157       .  T
C1138      N1140   1.157       .  T
C1143      C1144   1.419       .  A
C1143      C1148   1.415       .  A
C1144      C1145   1.413       .  A
C1144      C1149   1.452       .  S
C1145      C1146   1.413       .  A
C1145      C1152   1.452       .  S
C1146      C1147   1.416       .  A
C1147      C1148   1.409       .  A
C1147      C1150   1.453       .  S
C1148      C1151   1.453       .  S
C1150      N1155   1.157       .  T
C1151      N1153   1.158       .  T
C1152      N1154   1.158       .  T
C1157      C1158   1.412       .  A
C1157      C1162   1.412       .  A
C1158      C1159   1.407       .  A
C1158      C1163   1.452       .  S
C1159      C1160   1.412       .  A
C1159      C1166   1.452       .  S
C1160      C1161   1.411       .  A
C1161      C1162   1.408       .  A
C1161      C1164   1.452       .  S
C1162      C1165   1.451       .  S
C1163      N1170   1.157       .  T
C1164      N1169   1.157       .  T
C1165      N1167   1.157       .  T
C1171      C1176   1.423       .  A
C1172      C1173   1.412       .  A
C1172      C1177   1.454       .  S
C1173      C1180   1.454       .  S
C1174      C1175   1.420       .  A
C1175      C1176   1.415       .  A
C1175      C1178   1.452       .  S
C1176      C1179   1.452       .  S
C1177      N1184   1.158       .  T
C1178      N1183   1.158       .  T
C1179      N1181   1.158       .  T
C1180      N1182   1.158       .  T
C1185      C1186   1.413       .  A
C1185      C1190   1.413   1_565  A
C1186      C1187   1.409       .  A
C1186      C1191   1.453       .  S
C1187      C1188   1.417       .  A
C1187      C1194   1.452       .  S
C1188      C1189   1.417   1_565  A
C1189      C1190   1.411       .  A
C1189      C1192   1.453       .  S
C1190      C1193   1.451       .  S
C1191      N1198   1.157       .  T
C1192      N1197   1.158       .  T
C1194      N1196   1.157       .  T
C1199      C1200   1.426   1_565  A
C1199      C1204   1.423       .  A
C1200      C1201   1.410       .  A
C1200      C1205   1.452       .  S
C1201      C1202   1.405   1_545  A
C1201      C1208   1.452       .  S
C1202      C1203   1.407       .  A
C1203      C1204   1.409       .  A
C1203      C1206   1.453       .  S
C1204      C1207   1.452       .  S
C1205      N1212   1.158       .  T
C1206      N1211   1.157       .  T
C1207      N1209   1.158       .  T
C1208      N1210   1.157       .  T
C1213      C1214   1.415       .  A
C1214      C1215   1.410       .  A
C1214      C1219   1.452       .  S
C1215      C1216   1.411       .  A
C1215      C1222   1.451       .  S
C1217      C1218   1.410       .  A
C1217      C1220   1.452       .  S
C1218      C1221   1.451       .  S
C1219      N1226   1.157       .  T
C1220      N1225   1.157       .  T
C1221      N1223   1.157       .  T
C1222      N1224   1.157       .  T
C1227      C1228   1.417       .  A
C1227      C1232   1.415       .  A
C1228      C1229   1.409       .  A
C1228      C1233   1.452       .  S
C1229      C1230   1.409       .  A
C1229      C1236   1.452   1_565  S
C1230      C1231   1.410       .  A
C1231      C1232   1.408       .  A
C1231      C1234   1.452       .  S
C1232      C1235   1.452       .  S
C1234      N1239   1.157       .  T
C1235      N1237   1.157       .  T
C1236      N1238   1.157       .  T
C1241      C1242   1.411       .  A
C1241      C1246   1.412       .  A
C1242      C1243   1.409       .  A
C1242      C1247   1.452       .  S
C1243      C1244   1.418       .  A
C1243      C1250   1.452       .  S
C1244      C1245   1.418       .  A
C1245      C1246   1.409       .  A
C1245      C1248   1.452       .  S
C1246      C1249   1.453       .  S
C1247      N1254   1.157       .  T
C1248      N1253   1.158       .  T
C1249      N1251   1.157       .  T
C1250      N1252   1.157       .  T
