geometry optimzed in LAMMPS
_audit_creation_date              2020-11-30 
_audit_creation_method            'lammps2cif' 
_symmetry_space_group_name_H-M    'P1' 
_symmetry_Int_Tables_number       1 
_symmetry_cell_setting            triclinic 
loop_ 
_symmetry_equiv_pos_as_xyz 
  x,y,z 
_cell_length_a                    43.94423658863823 
_cell_length_b                    43.99317446149224 
_cell_length_c                    43.88304962157934 
_cell_angle_alpha                 89.51607785648199 
_cell_angle_beta                  89.93953236741827 
_cell_angle_gamma                 89.97017710673701 
loop_ 
_atom_site_label 
_atom_site_type_symbol 
_atom_site_fract_x 
_atom_site_fract_y 
_atom_site_fract_z 
_atom_site_charge 
N1          N  0.56825188  0.33827966  0.48630472    -0.06890
N2          N  0.58670983  0.35938417  0.47533938    -0.59010
N3          N  0.56800058  0.26908196  0.51750864    -0.06570
N4          N  0.59244835  0.25561528  0.52863049    -0.61130
N5          N  0.56892063  0.26930110  0.48743612    -0.06160
N6          N  0.59446077  0.25639770  0.47807898    -0.58980
N7          N  0.56836787  0.33844564  0.51625725    -0.05840
N8          N  0.58691130  0.35970546  0.52635580    -0.61490
C9          C  0.59799624  0.37264139  0.50058074     0.95290
C10         C  0.60897301  0.24785855  0.50400736     0.95070
N11         N  0.48648371  0.27147872  0.56971376    -0.07070
N12         N  0.47602325  0.25779366  0.59452874    -0.59580
N13         N  0.51851961  0.33997875  0.56740031    -0.05190
N14         N  0.52959600  0.36104810  0.58559786    -0.60840
N15         N  0.48866383  0.34088934  0.56728895    -0.07100
N16         N  0.47867082  0.36253606  0.58536470    -0.59850
N17         N  0.51642593  0.27028823  0.56924972    -0.04830
N18         N  0.52642175  0.25562177  0.59362629    -0.60920
Mn19       Mn  0.54304455  0.30413328  0.54284870     1.18440
C20         C  0.50107704  0.24758095  0.60936449     0.97370
C21         C  0.50442837  0.37501448  0.59643521     0.98040
N22         N  0.51554965  0.27017493  0.43519159    -0.07120
N23         N  0.52540077  0.25767791  0.40979220    -0.63430
N24         N  0.48756158  0.33978207  0.43637336    -0.05920
N25         N  0.47731021  0.36184125  0.41861194    -0.64100
N26         N  0.51744782  0.33923269  0.43629703    -0.06630
N27         N  0.52825987  0.36093313  0.41839714    -0.63690
N28         N  0.48547459  0.27114313  0.43503030    -0.05520
N29         N  0.47497650  0.25963717  0.40933402    -0.64380
Mn30       Mn  0.54282567  0.30378731  0.46099170     1.10660
C31         C  0.50001355  0.25098491  0.39374952     0.98590
C32         C  0.50294478  0.37488844  0.40776902     0.98670
N33         N  0.43868285  0.34242592  0.51646403    -0.06640
N34         N  0.42157745  0.36503008  0.52623503    -0.62010
N35         N  0.43298536  0.27338686  0.48836137    -0.05950
N36         N  0.40612659  0.26263169  0.47995384    -0.58740
N37         N  0.43498569  0.27288794  0.51838024    -0.07260
N38         N  0.41023214  0.26090256  0.53036752    -0.61580
N39         N  0.43850793  0.34175712  0.48655109    -0.06250
N40         N  0.42147291  0.36373556  0.47522611    -0.58760
Mn41       Mn  0.46194268  0.30667182  0.54318660     1.20190
Mn42       Mn  0.46085880  0.30594013  0.46134916     1.10090
Cl43       Cl  0.50218970  0.30415208  0.50201425    -0.86730
C44         C  0.41127191  0.37812882  0.50018686     0.95600
C45         C  0.39228518  0.25460978  0.50642061     0.95400
N46         N  0.57070143  0.50501726  0.34626363    -0.06890
N47         N  0.58881141  0.51572076  0.36761226    -0.59010
N48         N  0.57185327  0.47246570  0.27782331    -0.06570
N49         N  0.59548355  0.46043879  0.26390446    -0.61130
N50         N  0.57355985  0.50235763  0.27697702    -0.06160
N51         N  0.59871766  0.51084431  0.26270120    -0.58980
N52         N  0.57009344  0.47518471  0.34727042    -0.05840
N53         N  0.58771543  0.46484008  0.36935533    -0.61490
C54         C  0.59901287  0.49037673  0.38190931     0.95290
C55         C  0.61206125  0.48448537  0.25418403     0.95070
N56         N  0.48970019  0.42304380  0.27922064    -0.07070
N57         N  0.47892917  0.39850360  0.26594463    -0.59580
N58         N  0.51885848  0.42650078  0.34877814    -0.05190
N59         N  0.52895809  0.40869821  0.37085622    -0.60840
N60         N  0.48898241  0.42705963  0.34849121    -0.07100
N61         N  0.47799462  0.40954284  0.37046031    -0.59850
N62         N  0.51962999  0.42208695  0.27986339    -0.04830
N63         N  0.52941757  0.39681128  0.26716002    -0.60920
Mn64       Mn  0.54537985  0.44884952  0.31313043     1.18440
C65         C  0.50390834  0.38231773  0.25814159     0.97370
C66         C  0.50324682  0.39851771  0.38427773     0.98040
N67         N  0.52306732  0.55505159  0.27377024    -0.07120
N68         N  0.53532773  0.57844391  0.25944453    -0.63430
N69         N  0.49128338  0.55716704  0.34268534    -0.05920
N70         N  0.48060507  0.57529497  0.36397547    -0.64100
N71         N  0.52118419  0.55638337  0.34336913    -0.06630
N72         N  0.53153719  0.57407383  0.36518854    -0.63690
N73         N  0.49311012  0.55733460  0.27358872    -0.05520
N74         N  0.48504640  0.58291363  0.25964300    -0.64380
Mn75       Mn  0.54743650  0.53007227  0.30981057     1.10660
C76         C  0.51159110  0.59582615  0.25053939     0.98590
C77         C  0.50594679  0.58549739  0.37787562     0.98670
N78         N  0.43978260  0.47845456  0.34518808    -0.06640
N79         N  0.42178368  0.46871450  0.36722992    -0.62010
N80         N  0.43876407  0.50589478  0.27488356    -0.05950
N81         N  0.41316549  0.51497000  0.26167951    -0.58740
N82         N  0.43972611  0.47590558  0.27571892    -0.07260
N83         N  0.41545478  0.46459190  0.26242056    -0.61580
N84         N  0.43989845  0.50830674  0.34394731    -0.06250
N85         N  0.42193302  0.51959968  0.36519131    -0.58760
Mn86       Mn  0.46425755  0.45092305  0.31186378     1.20190
Mn87       Mn  0.46537455  0.53262595  0.30827281     1.10090
Cl88       Cl  0.50559027  0.49063914  0.31024816    -0.86730
C89         C  0.41101903  0.49457666  0.37956763     0.95600
C90         C  0.39887399  0.48895772  0.25359655     0.95400
N91         N  0.52082410  0.64332450  0.43025977    -0.06890
N92         N  0.53127560  0.62185899  0.41225098    -0.59010
N93         N  0.49091078  0.71266426  0.42795249    -0.06570
N94         N  0.47962697  0.72568634  0.40326453    -0.61130
N95         N  0.52093679  0.71208103  0.42656306    -0.06160
N96         N  0.53008336  0.72435721  0.40049678    -0.58980
N97         N  0.49091455  0.64342162  0.43049901    -0.05840
N98         N  0.48032965  0.62196395  0.41250220    -0.61490
C99         C  0.50580177  0.60865029  0.40153082     0.95290
C100        C  0.50409561  0.73284811  0.38615837     0.95070
N101        N  0.43937712  0.71443694  0.50999517    -0.07070
N102        N  0.41480657  0.72864489  0.51987072    -0.59580
N103        N  0.44064833  0.64463735  0.48156595    -0.05190
N104        N  0.42243836  0.62310818  0.47155738    -0.60840
N105        N  0.44038874  0.64532219  0.51148888    -0.07100
N106        N  0.42204225  0.62417080  0.52256621    -0.59850
N107        N  0.43933834  0.71375975  0.47994313    -0.04830
N108        N  0.41486528  0.72764234  0.46927681    -0.60920
Mn109      Mn  0.46522622  0.67889257  0.45472952     1.18440
C110        C  0.39978861  0.73725749  0.49431744     0.97370
C111        C  0.41122082  0.61044925  0.49736464     0.98040
N112        N  0.57470770  0.71195704  0.47857051    -0.07120
N113        N  0.60093844  0.72349409  0.46905894    -0.63430
N114        N  0.57096527  0.64369526  0.51023502    -0.05920
N115        N  0.58841628  0.62200271  0.52162957    -0.64100
N116        N  0.57128530  0.64313926  0.48031989    -0.06630
N117        N  0.58899789  0.62098274  0.47061656    -0.63690
N118        N  0.57343860  0.71282289  0.50857598    -0.05520
N119        N  0.59827033  0.72544581  0.51944479    -0.64380
Mn120      Mn  0.54724650  0.67808677  0.45354026     1.10660
C121        C  0.61547448  0.73217958  0.49477944     0.98590
C122        C  0.59929389  0.60794306  0.49666599     0.98670
N123        N  0.49106840  0.64547132  0.56073773    -0.06640
N124        N  0.48039247  0.62366899  0.57850180    -0.62010
N125        N  0.52226376  0.71440728  0.56037082    -0.05950
N126        N  0.53413899  0.72748797  0.58447883    -0.58740
N127        N  0.49230487  0.71417811  0.56238418    -0.07260
N128        N  0.48381519  0.72653918  0.58848016    -0.61580
N129        N  0.52093782  0.64508640  0.56034046    -0.06250
N130        N  0.53137780  0.62297624  0.57791095    -0.58760
Mn131      Mn  0.46544011  0.68034474  0.53647692     1.20190
Mn132      Mn  0.54700166  0.67937404  0.53501459     1.10090
Cl133      Cl  0.50622670  0.67981113  0.49488980    -0.86730
C134        C  0.50579221  0.60979771  0.58881077     0.95600
C135        C  0.51020241  0.73480889  0.60211403     0.95400
N136        N  0.65717649  0.42428891  0.51479860    -0.06890
N137        N  0.63545528  0.40646017  0.52552327    -0.59010
N138        N  0.72664057  0.42295618  0.48430300    -0.06570
N139        N  0.73975995  0.39855729  0.47304049    -0.61130
N140        N  0.72609472  0.42129781  0.51435382    -0.06160
N141        N  0.73835517  0.39521080  0.52347135    -0.58980
N142        N  0.65715239  0.42441752  0.48483649    -0.05840
N143        N  0.63533384  0.40661212  0.47450104    -0.61490
C144        C  0.62194047  0.39577684  0.50015548     0.95290
C145        C  0.74721529  0.38123954  0.49748339     0.95070
N146        N  0.72716662  0.50531613  0.43321264    -0.07070
N147        N  0.74122936  0.51643190  0.40905279    -0.59580
N148        N  0.65746239  0.47519093  0.43421982    -0.05190
N149        N  0.63572336  0.46480622  0.41641394    -0.60840
N150        N  0.65771543  0.50504276  0.43391115    -0.07100
N151        N  0.63610448  0.51571007  0.41589304    -0.59850
N152        N  0.72663859  0.47536635  0.43218296    -0.04830
N153        N  0.74005863  0.46603021  0.40692202    -0.60920
Mn154      Mn  0.69230900  0.44920553  0.45862295     1.18440
C155        C  0.74952266  0.49184444  0.39280756     0.97370
C156        C  0.62252530  0.49034037  0.40536620     0.98040
N157        N  0.72653255  0.47442372  0.56657961    -0.07120
N158        N  0.74048899  0.46465430  0.59150645    -0.63430
N159        N  0.65742436  0.50452158  0.56420083    -0.05920
N160        N  0.63578714  0.51544177  0.58180385    -0.64100
N161        N  0.65734648  0.47464521  0.56490573    -0.06630
N162        N  0.63555598  0.46455179  0.58311750    -0.63690
N163        N  0.72659471  0.50444018  0.56577099    -0.05520
N164        N  0.74083641  0.51511674  0.58985447    -0.64380
Mn165      Mn  0.69222188  0.44831137  0.54059297     1.10660
C166        C  0.74974111  0.49020580  0.60576203     0.98590
C167        C  0.62227492  0.49031174  0.59324449     0.98670
N168        N  0.65733595  0.55493536  0.48366596    -0.06640
N169        N  0.63602676  0.57295901  0.47253117    -0.62010
N170        N  0.72623102  0.55726306  0.51421411    -0.05950
N171        N  0.73904935  0.58236158  0.52441293    -0.58740
N172        N  0.72633426  0.55738756  0.48418836    -0.07260
N173        N  0.73921273  0.58257519  0.47387185    -0.61580
N174        N  0.65701464  0.55510114  0.51358964    -0.06250
N175        N  0.63538799  0.57337476  0.52356142    -0.58760
Mn176      Mn  0.69252796  0.53078545  0.45850866     1.20190
Mn177      Mn  0.69215899  0.53049912  0.53976815     1.10090
Cl178      Cl  0.69289969  0.48966195  0.49940593    -0.86730
C179        C  0.62242152  0.58409321  0.49764458     0.95600
C180        C  0.74729240  0.59807500  0.49905844     0.95400
N181        N  0.43950174  0.50854593  0.64914823    -0.06890
N182        N  0.42154928  0.51860521  0.62719837    -0.59010
N183        N  0.43645748  0.48135593  0.71965816    -0.06570
N184        N  0.41132478  0.47173735  0.73303350    -0.61130
N185        N  0.43638725  0.51128786  0.71807350    -0.06160
N186        N  0.41108300  0.52208886  0.73018126    -0.58980
N187        N  0.43909768  0.47869176  0.65044050    -0.05840
N188        N  0.42082001  0.46773995  0.62931650    -0.61490
C189        C  0.41026877  0.49293130  0.61492329     0.95290
C190        C  0.39554507  0.49727922  0.73972276     0.95070
N191        N  0.51846217  0.43071998  0.72411745    -0.07070
N192        N  0.52927673  0.40818881  0.74080983    -0.59580
N193        N  0.48937455  0.42820178  0.65382769    -0.05190
N194        N  0.47905467  0.40985304  0.63258473    -0.60840
N195        N  0.51926393  0.42805962  0.65426681    -0.07100
N196        N  0.52999675  0.40952961  0.63326162    -0.59850
N197        N  0.48852957  0.42944154  0.72324590    -0.04830
N198        N  0.47888953  0.40550470  0.73895484    -0.60920
Mn199      Mn  0.46304719  0.45403679  0.68713834     1.18440
C200        C  0.50451968  0.39245681  0.75022661     0.97370
C201        C  0.50461498  0.39852323  0.61987282     0.98040
N202        N  0.48889250  0.56235924  0.71700128    -0.07120
N203        N  0.47760128  0.58728265  0.72906151    -0.63430
N204        N  0.52003526  0.55834457  0.64815654    -0.05920
N205        N  0.53086510  0.57581204  0.62614293    -0.64100
N206        N  0.49014879  0.55831911  0.64782397    -0.06630
N207        N  0.47989854  0.57579272  0.62555408    -0.63690
N208        N  0.51892559  0.56358372  0.71680179    -0.05520
N209        N  0.52804748  0.58981135  0.72821642    -0.64380
Mn210      Mn  0.46357523  0.53538303  0.68334983     1.10660
C211        C  0.50201724  0.60445405  0.73584414     0.98590
C212        C  0.50555553  0.58626327  0.61219388     0.98670
N213        N  0.56967556  0.47820084  0.65230151    -0.06640
N214        N  0.58759335  0.46654390  0.63124933    -0.62010
N215        N  0.57202558  0.51122708  0.71972211    -0.05950
N216        N  0.59813056  0.52091695  0.73119530    -0.58740
N217        N  0.57070352  0.48130457  0.72162687    -0.07260
N218        N  0.59542473  0.47068614  0.73495239    -0.61580
N219        N  0.57002481  0.50804277  0.65084212    -0.06250
N220        N  0.58815617  0.51741981  0.62873061    -0.58760
Mn221      Mn  0.54469986  0.45429369  0.68841058     1.20190
Mn222      Mn  0.54554920  0.53565594  0.68431192     1.10090
Cl223      Cl  0.50421217  0.49487394  0.68635838    -0.86730
C224        C  0.59872920  0.49130367  0.61666278     0.95600
C225        C  0.61249796  0.49543337  0.74104256     0.95400
N226        N  0.35241829  0.42925911  0.48287082    -0.06890
N227        N  0.37481549  0.41186977  0.47306876    -0.59010
N228        N  0.28293491  0.42624018  0.51142904    -0.06570
N229        N  0.27025137  0.40052129  0.52073753    -0.61130
N230        N  0.28301413  0.42747150  0.48135587    -0.06160
N231        N  0.27004489  0.40293545  0.47018391    -0.58980
N232        N  0.35171016  0.42907120  0.51280132    -0.05840
N233        N  0.37348617  0.41177442  0.52409535    -0.61490
C234        C  0.38778298  0.40142321  0.49909846     0.95290
C235        C  0.26222253  0.38611298  0.49479612     0.95070
N236        N  0.28198471  0.50785487  0.56327833    -0.07070
N237        N  0.26919283  0.51864262  0.58806906    -0.59580
N238        N  0.35129500  0.47799764  0.56307396    -0.05190
N239        N  0.37292872  0.46738735  0.58113146    -0.60840
N240        N  0.35148143  0.50784618  0.56267991    -0.07100
N241        N  0.37322052  0.51828859  0.58047353    -0.59850
N242        N  0.28233272  0.47789414  0.56439063    -0.04830
N243        N  0.27039536  0.46832229  0.59044642    -0.60920
Mn244      Mn  0.31655700  0.45247927  0.53816492     1.18440
C245        C  0.26225325  0.49402865  0.60514035     0.97370
C246        C  0.38648250  0.49280156  0.59162232     0.98040
N247        N  0.28352720  0.48001701  0.42947652    -0.07120
N248        N  0.26973301  0.47015321  0.40470084    -0.63430
N249        N  0.35252853  0.50986867  0.43182470    -0.05920
N250        N  0.37414384  0.52043635  0.41368702    -0.64100
N251        N  0.35267847  0.48000305  0.43215776    -0.06630
N252        N  0.37434048  0.46952921  0.41429420    -0.63690
N253        N  0.28331190  0.51000715  0.42977734    -0.05520
N254        N  0.26937904  0.52064981  0.40526320    -0.64380
Mn255      Mn  0.31759781  0.45384898  0.45614491     1.10660
C256        C  0.26050638  0.49563296  0.38990127     0.98590
C257        C  0.38760704  0.49496754  0.40315393     0.98670
N258        N  0.35196222  0.55878121  0.51236884    -0.06640
N259        N  0.37374868  0.57639777  0.52307005    -0.62010
N260        N  0.28313141  0.56159377  0.48218559    -0.05950
N261        N  0.27054218  0.58746470  0.47310097    -0.58740
N262        N  0.28233648  0.55968566  0.51217047    -0.07260
N263        N  0.26865417  0.58369335  0.52352588    -0.61580
N264        N  0.35213965  0.55920025  0.48243622    -0.06250
N265        N  0.37400519  0.57698181  0.47203055    -0.58760
Mn266      Mn  0.31665607  0.53374788  0.53779633     1.20190
Mn267      Mn  0.31738953  0.53549574  0.45620876     1.10090
Cl268      Cl  0.31646992  0.49388061  0.49704452    -0.86730
C269        C  0.38735558  0.58735826  0.49759564     0.95600
C270        C  0.26119525  0.60099511  0.49910259     0.95400
N271        N  0.85442177  0.55902596  0.01289939    -0.06890
N272        N  0.87689992  0.57571989  0.02350539    -0.59010
N273        N  0.78537392  0.56225532  0.98237170    -0.06570
N274        N  0.77209326  0.58682143  0.97125430    -0.61130
N275        N  0.78532689  0.56280883  0.01243952    -0.06160
N276        N  0.77228632  0.58821231  0.02182620    -0.58980
N277        N  0.85457091  0.55924827  0.98296989    -0.05840
N278        N  0.87709545  0.57615169  0.97246283    -0.61490
C279        C  0.89086709  0.58602467  0.99801222     0.95290
C280        C  0.76366451  0.60288677  0.99593400     0.95070
N281        N  0.78432279  0.48192137  0.92927102    -0.07070
N282        N  0.77091623  0.47294766  0.90392612    -0.59580
N283        N  0.85395334  0.51019634  0.93238258    -0.05190
N284        N  0.87604444  0.52058567  0.91481057    -0.60840
N285        N  0.85336537  0.48037881  0.93207876    -0.07100
N286        N  0.87502108  0.46967316  0.91435684    -0.59850
N287        N  0.78468967  0.51186237  0.93023474    -0.04830
N288        N  0.77135527  0.52337309  0.90580684    -0.60920
Mn289      Mn  0.81931734  0.53613601  0.95679695     1.18440
C290        C  0.76277453  0.49902887  0.88942338     0.97370
C291        C  0.88902633  0.49501361  0.90399380     0.98040
N292        N  0.78468156  0.50897890  0.06530079    -0.07120
N293        N  0.77334835  0.51774713  0.09175564    -0.63430
N294        N  0.85317162  0.47862766  0.06283233    -0.05920
N295        N  0.87460339  0.46766637  0.08097839    -0.64100
N296        N  0.85347504  0.50850146  0.06311622    -0.06630
N297        N  0.87506905  0.51853092  0.08135754    -0.63690
N298        N  0.78392281  0.47901337  0.06379628    -0.05520
N299        N  0.77170465  0.46753605  0.08877796    -0.64380
Mn300      Mn  0.81894534  0.53524908  0.03876829     1.10660
C301        C  0.76523537  0.49164306  0.10630266     0.98590
C302        C  0.88816240  0.49283883  0.09217126     0.98670
N303        N  0.85239061  0.42968578  0.98171373    -0.06640
N304        N  0.87408005  0.41184265  0.97122810    -0.62010
N305        N  0.78323877  0.42802522  0.01112668    -0.05950
N306        N  0.76897010  0.40324813  0.02069051    -0.58740
N307        N  0.78313899  0.42907774  0.98108707    -0.07260
N308        N  0.76885382  0.40516352  0.97016600    -0.61580
N309        N  0.85241381  0.42949716  0.01163851    -0.06250
N310        N  0.87401334  0.41154483  0.02227733    -0.58760
Mn311      Mn  0.81787609  0.45495759  0.95575479     1.20190
Mn312      Mn  0.81781304  0.45353080  0.03756971     1.10090
Cl313      Cl  0.81745134  0.49500099  0.99732283    -0.86730
C314        C  0.88739727  0.40093265  0.99682238     0.95600
C315        C  0.75979806  0.38912415  0.99491127     0.95400
N316        N  0.01973345  0.42931786  0.84604838    -0.06890
N317        N  0.03012465  0.41104567  0.86764553    -0.59010
N318        N  0.99021796  0.42588120  0.77689646    -0.06570
N319        N  0.98118691  0.40007407  0.76446267    -0.61130
N320        N  0.02014237  0.42717007  0.77664949    -0.06160
N321        N  0.03157694  0.40286295  0.76361141    -0.58980
N322        N  0.98987183  0.42930051  0.84589591    -0.05840
N323        N  0.97914252  0.41114813  0.86739833    -0.61490
C324        C  0.00450669  0.40016137  0.88084933     0.95290
C325        C  0.00732158  0.38587829  0.75607094     0.95070
N326        N  0.93738050  0.50902154  0.77623292    -0.07070
N327        N  0.91163806  0.51835170  0.76352562    -0.59580
N328        N  0.94043245  0.47968708  0.84516094    -0.05190
N329        N  0.92270047  0.46929816  0.86714634    -0.60840
N330        N  0.94082042  0.50955360  0.84513189    -0.07100
N331        N  0.92331442  0.52021178  0.86698939    -0.59850
N332        N  0.93864844  0.47903023  0.77582533    -0.04830
N333        N  0.91422628  0.46802433  0.76247265    -0.60920
Mn334      Mn  0.96444988  0.45325334  0.81046802     1.18440
C335        C  0.89738122  0.49258442  0.75465150     0.97370
C336        C  0.91243275  0.49483035  0.88057943     0.98040
N337        N  0.07043029  0.47785078  0.77492772    -0.07120
N338        N  0.09390787  0.46574120  0.76091296    -0.63430
N339        N  0.07119911  0.50898004  0.84411828    -0.05920
N340        N  0.08950973  0.51929504  0.86553519    -0.64100
N341        N  0.07046456  0.47914246  0.84472270    -0.06630
N342        N  0.08827772  0.46841849  0.86648838    -0.63690
N343        N  0.07253620  0.50772883  0.77479146    -0.05520
N344        N  0.09827237  0.51599934  0.76138821    -0.64380
Mn345      Mn  0.04532596  0.45333365  0.81041327     1.10660
C346        C  0.11142184  0.48950319  0.75276367     0.98590
C347        C  0.09980224  0.49370058  0.87936492     0.98670
N348        N  0.99147143  0.55992713  0.84422414    -0.06640
N349        N  0.98159635  0.57790553  0.86609349    -0.62010
N350        N  0.02017227  0.56065811  0.77424630    -0.08110
N351        N  0.03040168  0.58554693  0.76075603    -0.58740
N352        N  0.99012621  0.56125163  0.77500777    -0.07260
N353        N  0.98000001  0.58667447  0.76233600    -0.61580
N354        N  0.02139371  0.55968690  0.84364055    -0.06250
N355        N  0.03251845  0.57739516  0.86508407    -0.58760
Mn356      Mn  0.96457557  0.53531401  0.80980102     1.20190
Mn357      Mn  0.04669248  0.53464575  0.80871665     1.10090
Cl358      Cl  0.00516108  0.49429755  0.80897091    -0.86730
C359        C  0.00745162  0.58845651  0.87897425     0.95600
C360        C  0.00523357  0.60173906  0.75322103     0.95400
N361        N  0.15813831  0.42472460  0.01159038    -0.06890
N362        N  0.13625355  0.40683340  0.02183865    -0.59010
N363        N  0.22733180  0.42430940  0.98076164    -0.06570
N364        N  0.23953574  0.39976191  0.96883600    -0.61130
N365        N  0.22698188  0.42203541  0.01081507    -0.06160
N366        N  0.23836556  0.39540388  0.01923800    -0.58980
N367        N  0.15792417  0.42575052  0.98163471    -0.05840
N368        N  0.13586389  0.40855397  0.97083509    -0.61490
C369        C  0.12251889  0.39708526  0.99619120     0.95290
C370        C  0.24612852  0.38169063  0.99282883     0.95070
N371        N  0.22756532  0.50721129  0.93171293    -0.07070
N372        N  0.24162574  0.51914124  0.90796066    -0.59580
N373        N  0.15779685  0.47720610  0.93202971    -0.05190
N374        N  0.13632037  0.46731572  0.91361076    -0.60840
N375        N  0.15799751  0.50702661  0.93260408    -0.07100
N376        N  0.13663887  0.51819905  0.91453922    -0.59850
N377        N  0.22703731  0.47737094  0.92974893    -0.04830
N378        N  0.24037385  0.46884861  0.90415937    -0.60920
Mn379      Mn  0.19285783  0.45084069  0.95583193     1.18440
C380        C  0.24982332  0.49511574  0.89086738     0.97370
C381        C  0.12321558  0.49312758  0.90306709     0.98040
N382        N  0.22763329  0.47335329  0.06533428    -0.07120
N383        N  0.24017301  0.46345096  0.09102538    -0.63430
N384        N  0.15876421  0.50305292  0.06381962    -0.05920
N385        N  0.13731041  0.51321350  0.08214102    -0.64100
N386        N  0.15867734  0.47318931  0.06341710    -0.06630
N387        N  0.13717122  0.46232498  0.08150632    -0.63690
N388        N  0.22801613  0.50338028  0.06469834    -0.05520
N389        N  0.24120665  0.51382764  0.08944840    -0.64380
Mn390      Mn  0.19334581  0.44791411  0.03813368     1.10660
C391        C  0.24868659  0.48896955  0.10595210     0.98590
C392        C  0.12397306  0.48759242  0.09280019     0.98670
N393        N  0.15831765  0.55498699  0.98431313    -0.06640
N394        N  0.13675303  0.57310276  0.97393542    -0.62010
N395        N  0.22714872  0.55718964  0.01394693    -0.05950
N396        N  0.23981671  0.58270779  0.02350276    -0.58740
N397        N  0.22766324  0.55643121  0.98394905    -0.07260
N398        N  0.24130555  0.58079332  0.97301051    -0.61580
N399        N  0.15828299  0.55436845  0.01423125    -0.06250
N400        N  0.13669347  0.57212336  0.02500056    -0.58760
Mn401      Mn  0.19317246  0.53159855  0.95801299     1.20190
Mn402      Mn  0.19341670  0.52973518  0.03949346     1.10090
Cl403      Cl  0.19376729  0.48996935  0.99792015    -0.86730
C404        C  0.12341079  0.58336341  0.99955739     0.95600
C405        C  0.24893100  0.59720851  0.99770465     0.95400
N406        N  0.02327256  0.55402471  0.15103023    -0.06890
N407        N  0.03420906  0.57147352  0.12900853    -0.59010
N408        N  0.99358537  0.55723947  0.21997168    -0.06570
N409        N  0.98503252  0.58272775  0.23330155    -0.61130
N410        N  0.02351064  0.55497343  0.22066462    -0.06160
N411        N  0.03536103  0.57842349  0.23486345    -0.58980
N412        N  0.99340663  0.55473160  0.15091904    -0.05840
N413        N  0.98323991  0.57252972  0.12892520    -0.61490
C414        C  0.00890465  0.58256896  0.11540416     0.95290
C415        C  0.01133900  0.59578096  0.24259541     0.95070
N416        N  0.93813005  0.47747399  0.21991109    -0.07070
N417        N  0.91228347  0.46834047  0.23229991    -0.59580
N418        N  0.94128304  0.50679406  0.15056873    -0.05190
N419        N  0.92329856  0.51765516  0.12894252    -0.60840
N420        N  0.94069596  0.47693869  0.15073010    -0.07100
N421        N  0.92231877  0.46678304  0.12930546    -0.59850
N422        N  0.93932128  0.50741996  0.21981672    -0.04830
N423        N  0.91435073  0.51868622  0.23208494    -0.60920
Mn424      Mn  0.96667004  0.53188176  0.18571697     1.18440
C425        C  0.89751345  0.49422166  0.23998273     0.97370
C426        C  0.91182151  0.49241854  0.11577642     0.98040
N427        N  0.07407894  0.50258523  0.22062454    -0.07120
N428        N  0.09941867  0.51224380  0.23349866    -0.63430
N429        N  0.07172378  0.47280536  0.15178998    -0.05920
N430        N  0.08949830  0.46207893  0.13008514    -0.64100
N431        N  0.07214908  0.50265554  0.15153592    -0.06630
N432        N  0.09017755  0.51298564  0.12977729    -0.63690
N433        N  0.07310435  0.47263083  0.22123847    -0.05520
N434        N  0.09778590  0.46188773  0.23466493    -0.64380
Mn435      Mn  0.04845314  0.52885295  0.18628011     1.10660
C436        C  0.11413234  0.48676130  0.24250427     0.98590
C437        C  0.10063156  0.48746032  0.11650927     0.98670
N438        N  0.98997978  0.42551921  0.15165935    -0.06640
N439        N  0.97924956  0.40878605  0.12927954    -0.62010
N440        N  0.01884834  0.42179004  0.22102366    -0.05950
N441        N  0.02703320  0.39566246  0.23384675    -0.58740
N442        N  0.98890548  0.42428119  0.22138583    -0.07260
N443        N  0.97679347  0.40041130  0.23504427    -0.61580
N444        N  0.01986527  0.42454871  0.15196160    -0.06250
N445        N  0.03018734  0.40721841  0.12986059    -0.58760
Mn446      Mn  0.96424074  0.45073753  0.18629933     1.20190
Mn447      Mn  0.04622122  0.44754700  0.18697537     1.10090
Cl448      Cl  0.00638620  0.48969300  0.18725984    -0.86730
C449        C  0.00461645  0.39774532  0.11586394     0.95600
C450        C  0.00059332  0.38254380  0.24289375     0.95400
N451        N  0.93874001  0.34194581  0.01242056    -0.06890
N452        N  0.92122962  0.36393647  0.02274630    -0.59010
N453        N  0.93439420  0.27336666  0.98382597    -0.06570
N454        N  0.90774530  0.26244846  0.97506167    -0.61130
N455        N  0.93612770  0.27265904  0.01384021    -0.06160
N456        N  0.91120145  0.26062610  0.02546990    -0.58980
N457        N  0.93871813  0.34192963  0.98249927    -0.05840
N458        N  0.92116323  0.36379827  0.97169439    -0.61490
C459        C  0.91066608  0.37739518  0.99706661     0.95290
C460        C  0.89340500  0.25455039  0.00131078     0.95070
N461        N  0.01668519  0.27135123  0.92973336    -0.07070
N462        N  0.02523145  0.25952334  0.90341591    -0.59580
N463        N  0.98868620  0.34059063  0.93197469    -0.05190
N464        N  0.97849274  0.36296724  0.91457763    -0.60840
N465        N  0.01859028  0.33997710  0.93161800    -0.07100
N466        N  0.02945161  0.36187770  0.91403490    -0.59850
N467        N  0.98665141  0.27141850  0.93147157    -0.04830
N468        N  0.97489759  0.25915091  0.90685563    -0.60920
Mn469      Mn  0.96191469  0.30641970  0.95712327     1.18440
C470        C  0.99891360  0.25196523  0.88926153     0.97370
C471        C  0.00418117  0.37605556  0.90378095     0.98040
N472        N  0.98830829  0.27236496  0.06508131    -0.07120
N473        N  0.97888608  0.25907046  0.09049949    -0.63430
N474        N  0.01884368  0.34107096  0.06193334    -0.05920
N475        N  0.02969347  0.36209517  0.08024058    -0.64100
N476        N  0.98897812  0.34135508  0.06226530    -0.06630
N477        N  0.97872893  0.36254874  0.08070536    -0.63690
N478        N  0.01822546  0.27160463  0.06373393    -0.05520
N479        N  0.02937893  0.25736350  0.08776228    -0.64380
Mn480      Mn  0.96277086  0.30671762  0.03863090     1.10660
C481        C  0.00475878  0.24969037  0.10442835     0.98590
C482        C  0.00437139  0.37538683  0.09152487     0.98670
N483        N  0.06932949  0.33945413  0.98123536    -0.06640
N484        N  0.08782980  0.36068156  0.97055700    -0.62010
N485        N  0.06830369  0.27037058  0.01265349    -0.05950
N486        N  0.09179611  0.25615449  0.02462932    -0.58740
N487        N  0.07002003  0.27034963  0.98266667    -0.07260
N488        N  0.09551004  0.25670462  0.97421262    -0.61580
N489        N  0.06893022  0.33974329  0.01116353    -0.06250
N490        N  0.08717854  0.36105587  0.02157694    -0.58760
Mn491      Mn  0.04409297  0.30476564  0.95585419     1.20190
Mn492      Mn  0.04377043  0.30552824  0.03751156     1.10090
Cl493      Cl  0.00312572  0.30531000  0.99722240    -0.86730
C494        C  0.09858850  0.37402322  0.99601744     0.95600
C495        C  0.10890994  0.24782442  0.00073803     0.95400
N496        N  0.94395295  0.64370144  0.98357178    -0.06890
N497        N  0.92573295  0.62257043  0.97274202    -0.59010
N498        N  0.94247226  0.71186366  0.01553485    -0.06570
N499        N  0.91797635  0.72427140  0.02743954    -0.61130
N500        N  0.94104351  0.71250138  0.98552776    -0.06160
N501        N  0.91491061  0.72484145  0.97689186    -0.58980
N502        N  0.94432728  0.64270902  0.01348693    -0.05840
N503        N  0.92638062  0.62091350  0.02377299    -0.61490
C504        C  0.91517967  0.60848626  0.99810691     0.95290
C505        C  0.90085375  0.73227592  0.00331741     0.95070
N506        N  0.02292483  0.71098656  0.06800798    -0.07070
N507        N  0.03157122  0.72417609  0.09360873    -0.59580
N508        N  0.99401280  0.64171007  0.06392692    -0.05190
N509        N  0.98350012  0.61944854  0.08122896    -0.60840
N510        N  0.02383930  0.64205456  0.06440849    -0.07100
N511        N  0.03448331  0.62004288  0.08194883    -0.59850
N512        N  0.99301763  0.71112878  0.06622949    -0.04830
N513        N  0.98116399  0.72493188  0.08993065    -0.60920
Mn514      Mn  0.96833675  0.67706347  0.03993827     1.18440
C515        C  0.00525607  0.73326336  0.10695310     0.97370
C516        C  0.00903410  0.60609358  0.09202832     0.98040
N517        N  0.99451359  0.71468497  0.93350010    -0.07120
N518        N  0.98438402  0.72885946  0.90892329    -0.63430
N519        N  0.02376827  0.64501729  0.93309170    -0.05920
N520        N  0.03389259  0.62394229  0.91430186    -0.64100
N521        N  0.99386215  0.64550184  0.93306946    -0.06630
N522        N  0.98297322  0.62478546  0.91442663    -0.63690
N523        N  0.02456731  0.71409153  0.93313277    -0.05520
N524        N  0.03484435  0.72759268  0.90813759    -0.64380
Mn525      Mn  0.96806097  0.67959700  0.95855539     1.10660
C526        C  0.00964805  0.73706332  0.89319073     0.98590
C527        C  0.00815027  0.61142761  0.90302840     0.98670
N528        N  0.07341525  0.64316061  0.01466896    -0.06640
N529        N  0.09040945  0.62072901  0.02519251    -0.62010
N530        N  0.07675922  0.71209545  0.98596708    -0.05950
N531        N  0.10289135  0.72402363  0.97685541    -0.58740
N532        N  0.07547258  0.71205686  0.01605495    -0.07260
N533        N  0.10041917  0.72413753  0.02741636    -0.61580
N534        N  0.07339966  0.64342673  0.98471830    -0.06250
N535        N  0.09049268  0.62127427  0.97412841    -0.58760
Mn536      Mn  0.04926379  0.67755392  0.04107016     1.20190
Mn537      Mn  0.05000752  0.67901601  0.95887024     1.10090
Cl538      Cl  0.00894522  0.67892629  0.99952981    -0.86730
C539        C  0.10067579  0.60729154  0.99964528     0.95600
C540        C  0.11743990  0.73149694  0.00291315     0.95400
N541        N  0.49131698  0.84099912  0.93033797    -0.06890
N542        N  0.48048277  0.86267567  0.91235453    -0.59010
N543        N  0.52344401  0.77252332  0.92867670    -0.06570
N544        N  0.53479476  0.75932438  0.90431642    -0.61130
N545        N  0.49344032  0.77197296  0.92765561    -0.06160
N546        N  0.48431630  0.75873778  0.90227852    -0.58980
N547        N  0.52120469  0.84177382  0.93074668    -0.05840
N548        N  0.53141137  0.86396586  0.91314239    -0.61490
C549        C  0.50580504  0.87687356  0.90202351     0.95290
C550        C  0.51030925  0.75050124  0.88796754     0.95070
N551        N  0.57498838  0.77302989  0.01062824    -0.07070
N552        N  0.59990223  0.75984766  0.02101245    -0.59580
N553        N  0.57126350  0.84258453  0.98133075    -0.05190
N554        N  0.58905616  0.86462722  0.97117664    -0.60840
N555        N  0.57098767  0.84202014  0.01126804    -0.07100
N556        N  0.58852130  0.86365894  0.02220263    -0.59850
N557        N  0.57541417  0.77369117  0.98059955    -0.04830
N558        N  0.60076704  0.76112755  0.97047280    -0.60920
Mn559      Mn  0.54806881  0.80730096  0.95503493     1.18440
C560        C  0.61593081  0.75227617  0.99582643     0.97370
C561        C  0.59940619  0.87764883  0.99695332     0.98040
N562        N  0.44112195  0.76918873  0.97991262    -0.07120
N563        N  0.41695524  0.75452609  0.96973480    -0.63430
N564        N  0.44099242  0.83769754  0.01090519    -0.05920
N565        N  0.42337748  0.85936693  0.02178611    -0.64100
N566        N  0.44112636  0.83843616  0.98095989    -0.06630
N567        N  0.42362715  0.86063719  0.97074879    -0.63690
N568        N  0.44143626  0.76851241  0.00996766    -0.05520
N569        N  0.41756581  0.75344468  0.02028022    -0.64380
Mn570      Mn  0.46633192  0.80478196  0.95435105     1.10660
C571        C  0.40243571  0.74444811  0.99514857     0.98590
C572        C  0.41291483  0.87351330  0.99645711     0.98670
N573        N  0.52052929  0.83941480  0.06142505    -0.06640
N574        N  0.53017421  0.86124828  0.07942798    -0.62010
N575        N  0.49324204  0.76910637  0.06250846    -0.05950
N576        N  0.48353716  0.75434876  0.08699095    -0.58740
N577        N  0.52322204  0.77032409  0.06261328    -0.07260
N578        N  0.53402002  0.75646465  0.08714593    -0.61580
N579        N  0.49066450  0.83829307  0.06137719    -0.06250
N580        N  0.47924126  0.85936008  0.07930934    -0.58760
Mn581      Mn  0.54769601  0.80586724  0.03673394     1.20190
Mn582      Mn  0.46623970  0.80296168  0.03647205     1.10090
Cl583      Cl  0.50709514  0.80464340  0.99563223    -0.86730
C584        C  0.50416151  0.87355441  0.09019039     0.95600
C585        C  0.50916337  0.74615330  0.10213621     0.95400
N586        N  0.57287868  0.00989420  0.84632236    -0.06890
N587        N  0.59023078  0.02024738  0.86836703    -0.59010
N588        N  0.57624137  0.98069425  0.77686597    -0.06570
N589        N  0.60111408  0.96984033  0.76403971    -0.61130
N590        N  0.57730768  0.01068773  0.77745234    -0.06160
N591        N  0.60314392  0.02027886  0.76524181    -0.58980
N592        N  0.57278021  0.98003418  0.84623188    -0.05840
N593        N  0.59022775  0.96933950  0.86833820    -0.61490
C594        C  0.60067978  0.99475056  0.88196725     0.95290
C595        C  0.61781794  0.99461283  0.75684112     0.95070
N596        N  0.49364092  0.93023600  0.77401976    -0.07070
N597        N  0.48310987  0.90597488  0.76007342    -0.59580
N598        N  0.52189197  0.93019534  0.84436989    -0.05190
N599        N  0.53180139  0.91186739  0.86611685    -0.60840
N600        N  0.49200844  0.93020608  0.84348576    -0.07100
N601        N  0.48087010  0.91183322  0.86470499    -0.59850
N602        N  0.52364058  0.92914028  0.77523400    -0.04830
N603        N  0.53353539  0.90391074  0.76232161    -0.60920
Mn604      Mn  0.54894918  0.95474936  0.81033106     1.18440
C605        C  0.50810297  0.88972796  0.75250009     0.97370
C606        C  0.50600366  0.90077850  0.87869177     0.98040
N607        N  0.52613452  0.06415119  0.77660135    -0.07120
N608        N  0.53698744  0.08980317  0.76496692    -0.63430
N609        N  0.49370117  0.06065174  0.84515993    -0.05920
N610        N  0.48242087  0.07795593  0.86682613    -0.64100
N611        N  0.52356906  0.06061597  0.84603783    -0.06630
N612        N  0.53334455  0.07796960  0.86842648    -0.63690
N613        N  0.49611159  0.06431368  0.77562677    -0.05520
N614        N  0.48652983  0.08995640  0.76301109    -0.64380
Mn615      Mn  0.55024767  0.03657782  0.81117551     1.10660
C616        C  0.51211856  0.10575070  0.75629762     0.98590
C617        C  0.50737664  0.08843792  0.88122699     0.98670
N618        N  0.44276539  0.98121146  0.84290829    -0.06640
N619        N  0.42492670  0.97022140  0.86450071    -0.62010
N620        N  0.44353352  0.01297129  0.77380634    -0.05950
N621        N  0.41951011  0.02485479  0.76038364    -0.58740
N622        N  0.44160219  0.98305710  0.77388076    -0.07260
N623        N  0.41577226  0.97467064  0.76083447    -0.61580
N624        N  0.44300439  0.01106744  0.84336469    -0.06250
N625        N  0.42518562  0.02110967  0.86538363    -0.58760
Mn626      Mn  0.46723332  0.95588062  0.80810626     1.20190
Mn627      Mn  0.46888161  0.03745382  0.80907405     1.10090
Cl628      Cl  0.50884253  0.99616542  0.80900522    -0.86730
C629        C  0.41429577  0.99531617  0.87840463     0.95600
C630        C  0.40213833  0.00107594  0.75222381     0.95400
N631        N  0.51965569  0.14662568  0.93417589    -0.06890
N632        N  0.53114813  0.12559194  0.91622123    -0.59010
N633        N  0.48764145  0.21477131  0.93264274    -0.06570
N634        N  0.47752370  0.22795912  0.90742602    -0.61130
N635        N  0.51764982  0.21568520  0.93322560    -0.06160
N636        N  0.52793041  0.22957277  0.90850342    -0.58980
N637        N  0.48976469  0.14572049  0.93379458    -0.05840
N638        N  0.48022775  0.12404802  0.91549573    -0.61490
C639        C  0.50629609  0.11160510  0.90492884     0.95290
C640        C  0.50277358  0.23736774  0.89244111     0.95070
N641        N  0.43612820  0.21238311  0.01519105    -0.07070
N642        N  0.41122143  0.22460782  0.02644664    -0.59580
N643        N  0.43896382  0.14363755  0.98402372    -0.05190
N644        N  0.42132635  0.12205843  0.97316884    -0.60840
N645        N  0.43862425  0.14322807  0.01396045    -0.07100
N646        N  0.42076563  0.12131673  0.02420270    -0.59850
N647        N  0.43490696  0.21223920  0.98512332    -0.04830
N648        N  0.40863539  0.22381031  0.97594800    -0.60920
Mn649      Mn  0.46247514  0.17947526  0.95856271     1.18440
C650        C  0.39401773  0.23144603  0.00198068     0.97370
C651        C  0.41038127  0.10827480  0.99849824     0.98040
N652        N  0.56915990  0.21589109  0.98640252    -0.07120
N653        N  0.59401700  0.23025085  0.97722095    -0.63430
N654        N  0.56847869  0.14605626  0.01502610    -0.05920
N655        N  0.58629064  0.12420104  0.02541958    -0.64100
N656        N  0.56895965  0.14686551  0.98510061    -0.06630
N657        N  0.58710488  0.12557321  0.97438720    -0.63690
N658        N  0.56803581  0.21533192  0.01645304    -0.05520
N659        N  0.59174423  0.22965217  0.02777045    -0.64380
Mn660      Mn  0.54418666  0.18171624  0.95944398     1.10660
C661        C  0.60783257  0.23914282  0.00321287     0.98590
C662        C  0.59751996  0.11159078  0.99981833     0.98670
N663        N  0.48801784  0.14273623  0.06463766    -0.06640
N664        N  0.47749635  0.12035860  0.08182720    -0.62010
N665        N  0.51652032  0.21233994  0.06841722    -0.05950
N666        N  0.52624395  0.22567548  0.09343054    -0.58740
N667        N  0.48656678  0.21185947  0.06806532    -0.07260
N668        N  0.47574730  0.22493248  0.09283388    -0.61580
N669        N  0.51788700  0.14317287  0.06505401    -0.06250
N670        N  0.52845496  0.12105826  0.08261962    -0.58760
Mn671      Mn  0.46208578  0.17792685  0.04062810     1.20190
Mn672      Mn  0.54307524  0.17954687  0.04148053     1.10090
Cl673      Cl  0.50293671  0.18026645  0.00000112    -0.86730
C674        C  0.50296174  0.10694321  0.09266296     0.95600
C675        C  0.50070333  0.23391369  0.10847218     0.95400
N676        N  0.48729615  0.92446746  0.14898147    -0.06890
N677        N  0.47738148  0.90677297  0.12697336    -0.59010
N678        N  0.51647355  0.92183364  0.21872897    -0.06570
N679        N  0.52772765  0.89707456  0.23142925    -0.61130
N680        N  0.48648994  0.92020217  0.21784023    -0.06160
N681        N  0.47739766  0.89375693  0.22926684    -0.58980
N682        N  0.51718593  0.92498878  0.14932208    -0.05840
N683        N  0.52832561  0.90771058  0.12757298    -0.61490
C684        C  0.50325261  0.89672530  0.11375976     0.95290
C685        C  0.50334121  0.87956040  0.23802293     0.95070
N686        N  0.56871982  0.00298802  0.22067005    -0.07070
N687        N  0.59386066  0.01240338  0.23415301    -0.59580
N688        N  0.56734266  0.97527809  0.15064241    -0.05190
N689        N  0.58548609  0.96554330  0.12880583    -0.60840
N690        N  0.56739187  0.00509861  0.15148402    -0.07100
N691        N  0.58546105  0.01642503  0.13022970    -0.59850
N692        N  0.56839497  0.97304983  0.21989778    -0.04830
N693        N  0.59315741  0.96204067  0.23287684    -0.60920
Mn694      Mn  0.54248786  0.94855577  0.18497679     1.18440
C695        C  0.60895926  0.98661573  0.24199946     0.97370
C696        C  0.59638068  0.99149388  0.11619938     0.98040
N697        N  0.43347489  0.97277818  0.21847759    -0.07120
N698        N  0.40741368  0.96322158  0.23039583    -0.63430
N699        N  0.43700915  0.00440334  0.15015823    -0.05920
N700        N  0.41939073  0.01559458  0.12847849    -0.64100
N701        N  0.43698028  0.97456321  0.14956163    -0.06630
N702        N  0.41939784  0.96469259  0.12745500    -0.63690
N703        N  0.43475664  0.00274914  0.21953367    -0.05520
N704        N  0.41007336  0.01351380  0.23267819    -0.64380
Mn705      Mn  0.46067786  0.94762409  0.18414896     1.10660
C706        C  0.39307494  0.98882729  0.23963485     0.98590
C707        C  0.40881803  0.99053116  0.11447896     0.98670
N708        N  0.51710545  0.05434702  0.15148801    -0.06640
N709        N  0.52796600  0.07215940  0.12970269    -0.62010
N710        N  0.48606478  0.05508448  0.22047062    -0.05950
N711        N  0.47565903  0.08041385  0.23270984    -0.58740
N712        N  0.51607995  0.05474393  0.22134154    -0.07260
N713        N  0.52611132  0.07967154  0.23451815    -0.61580
N714        N  0.48723201  0.05419612  0.15097945    -0.06250
N715        N  0.47702367  0.07198183  0.12887710    -0.58760
Mn716      Mn  0.54253819  0.02962389  0.18675088     1.20190
Mn717      Mn  0.46101969  0.02933795  0.18567040     1.10090
Cl718      Cl  0.50166269  0.98874802  0.18605600    -0.86730
C719        C  0.50270123  0.08288527  0.11579923     0.95600
C720        C  0.50079090  0.09556688  0.24164935     0.95400
N721        N  0.35585976  0.92700502  0.98110785    -0.06890
N722        N  0.37759760  0.90912071  0.97090567    -0.59010
N723        N  0.28632390  0.92246582  0.00892024    -0.06570
N724        N  0.27540188  0.89591667  0.01811767    -0.61130
N725        N  0.28708233  0.92363273  0.97886177    -0.06160
N726        N  0.27634188  0.89813253  0.96771973    -0.58980
N727        N  0.35493440  0.92633977  0.01104031    -0.05840
N728        N  0.37607954  0.90787650  0.02190672    -0.61490
C729        C  0.39009909  0.89757978  0.99656377     0.95290
C730        C  0.26916601  0.88079832  0.99214539     0.95070
N731        N  0.28145618  0.00403961  0.06166700    -0.07070
N732        N  0.26676232  0.01326967  0.08623272    -0.59580
N733        N  0.35144711  0.97599436  0.06150490    -0.05190
N734        N  0.37313213  0.96553265  0.07943422    -0.60840
N735        N  0.35058737  0.00583926  0.06206962    -0.07100
N736        N  0.37177232  0.01642317  0.08044308    -0.59850
N737        N  0.28238963  0.97403674  0.06125024    -0.04830
N738        N  0.26822958  0.96283460  0.08541615    -0.60920
Mn739      Mn  0.31838922  0.94947404  0.03600825     1.18440
C740        C  0.25815161  0.98742466  0.10077400     0.97370
C741        C  0.38565219  0.99097036  0.09086283     0.98040
N742        N  0.28772190  0.97591973  0.92640963    -0.07120
N743        N  0.27601951  0.96692238  0.90018755    -0.63430
N744        N  0.35566745  0.00760577  0.93134333    -0.05920
N745        N  0.37697011  0.01917520  0.91345372    -0.64100
N746        N  0.35653570  0.97779120  0.93095114    -0.06630
N747        N  0.37845066  0.96830385  0.91279429    -0.63690
N748        N  0.28629505  0.00573524  0.92818362    -0.05520
N749        N  0.27297597  0.01710964  0.90383332    -0.64380
Mn750      Mn  0.32143469  0.95080463  0.95411739     1.10660
C751        C  0.26653019  0.99288184  0.88631820     0.98590
C752        C  0.39109940  0.99436270  0.90228211     0.98670
N753        N  0.35123488  0.05652248  0.01202566    -0.06640
N754        N  0.37256270  0.07432724  0.02319183    -0.62010
N755        N  0.28299090  0.05573867  0.97907316    -0.05950
N756        N  0.26922612  0.07939797  0.96679439    -0.58740
N757        N  0.28219713  0.05727849  0.00903978    -0.07260
N758        N  0.26839234  0.08271355  0.01719113    -0.61580
N759        N  0.35233836  0.05649959  0.98212057    -0.06250
N760        N  0.37439586  0.07429287  0.97216510    -0.58760
Mn761      Mn  0.31588635  0.03135047  0.03666174     1.20190
Mn762      Mn  0.31907090  0.03155494  0.95509368     1.10090
Cl763      Cl  0.31813020  0.99075162  0.99550103    -0.86730
C764        C  0.38685174  0.08502124  0.99803007     0.95600
C765        C  0.26029841  0.09635148  0.99050780     0.95400
N766        N  0.65548424  0.00859160  0.06501599    -0.06890
N767        N  0.63336761  0.01835368  0.08280431    -0.59010
N768        N  0.72496983  0.97953255  0.06733197    -0.06570
N769        N  0.73827516  0.96876444  0.09208499    -0.61130
N770        N  0.72445892  0.00951114  0.06798440    -0.06160
N771        N  0.73718378  0.01916705  0.09334800    -0.58980
N772        N  0.65585109  0.97873860  0.06449249    -0.05840
N773        N  0.63402242  0.96748026  0.08188637    -0.61490
C774        C  0.62012615  0.99245020  0.09293310     0.95290
C775        C  0.74605956  0.99364189  0.10819822     0.95070
N776        N  0.72773852  0.92911818  0.98544264    -0.07070
N777        N  0.74057663  0.90417198  0.97508325    -0.59580
N778        N  0.65751867  0.92949737  0.01369723    -0.05190
N779        N  0.63551485  0.91153728  0.02354260    -0.60840
N780        N  0.65848953  0.92980055  0.98378181    -0.07100
N781        N  0.63709217  0.91210311  0.97252857    -0.59850
N782        N  0.72641694  0.92795831  0.01547521    -0.04830
N783        N  0.73809320  0.90202925  0.02548958    -0.60920
Mn784      Mn  0.69154537  0.95371221  0.04056312     1.18440
C785        C  0.74690126  0.88724323  0.00006241     0.97370
C786        C  0.62289936  0.90107762  0.99760741     0.98040
N787        N  0.72472204  0.06343577  0.01663488    -0.07120
N788        N  0.73687185  0.08911044  0.02650254    -0.63430
N789        N  0.65644886  0.05998930  0.98533585    -0.05920
N790        N  0.63487430  0.07791962  0.97449694    -0.64100
N791        N  0.65586822  0.05960701  0.01525919    -0.06630
N792        N  0.63390670  0.07717282  0.02554362    -0.63690
N793        N  0.72574472  0.06281122  0.98660168    -0.05520
N794        N  0.73898345  0.08762517  0.97599578    -0.64380
Mn795      Mn  0.69053854  0.03558389  0.04160694     1.10660
C796        C  0.74619976  0.10391996  0.00094253     0.98590
C797        C  0.62095533  0.08820599  0.99987151     0.98670
N798        N  0.65903664  0.98049654  0.93433321    -0.06640
N799        N  0.63776435  0.96968572  0.91625582    -0.62010
N800        N  0.72783190  0.01195578  0.93465694    -0.05950
N801        N  0.74130576  0.02380377  0.91051911    -0.58740
N802        N  0.72787137  0.98203331  0.93297709    -0.07260
N803        N  0.74081200  0.97353047  0.90711870    -0.61580
N804        N  0.65834657  0.01033066  0.93466765    -0.06250
N805        N  0.63652110  0.02058955  0.91670416    -0.58760
Mn806      Mn  0.69379877  0.95509415  0.95889634     1.20190
Mn807      Mn  0.69240944  0.03647131  0.96009500     1.10090
Cl808      Cl  0.69270631  0.99523972  0.00030484    -0.86730
C809        C  0.62384565  0.99494842  0.90564192     0.95600
C810        C  0.74948772  0.99981158  0.89333143     0.95400
N811        N  0.02093933  0.83824656  0.56536092    -0.06890
N812        N  0.03094199  0.86022651  0.58299772    -0.59010
N813        N  0.99275130  0.76797592  0.56735852    -0.06570
N814        N  0.98233939  0.75356609  0.59164874    -0.61130
N815        N  0.02271796  0.76909463  0.56814215    -0.06160
N816        N  0.03276171  0.75591227  0.59342816    -0.58980
N817        N  0.99106480  0.83744697  0.56563009    -0.05840
N818        N  0.98000379  0.85882838  0.58343269    -0.61490
C819        C  0.00514667  0.87292080  0.59389532     0.95290
C820        C  0.00737192  0.74587521  0.60785554     0.95070
N821        N  0.93872898  0.76765287  0.48698765    -0.07070
N822        N  0.91314869  0.75448535  0.47820269    -0.59580
N823        N  0.94027281  0.83663025  0.51607907    -0.05190
N824        N  0.92203745  0.85793175  0.52673355    -0.60840
N825        N  0.93993858  0.83675727  0.48614805    -0.07100
N826        N  0.92146332  0.85808341  0.47570663    -0.59850
N827        N  0.94051340  0.76710401  0.51696215    -0.04830
N828        N  0.91664101  0.75314867  0.52864978    -0.60920
Mn829      Mn  0.96598449  0.80196123  0.54172614     1.18440
C830        C  0.89965245  0.74508401  0.50440780     0.97370
C831        C  0.91066503  0.87119616  0.50127269     0.98040
N832        N  0.07439022  0.77013987  0.51521314    -0.07120
N833        N  0.10010902  0.75809403  0.52519159    -0.63430
N834        N  0.07027545  0.83851312  0.48409720    -0.05920
N835        N  0.08742691  0.86046299  0.47278737    -0.64100
N836        N  0.07061049  0.83895395  0.51403310    -0.06630
N837        N  0.08807598  0.86119382  0.52381584    -0.63690
N838        N  0.07378856  0.76969888  0.48513960    -0.05520
N839        N  0.09911788  0.75739377  0.47469097    -0.64380
Mn840      Mn  0.04751221  0.80377940  0.54104725     1.10660
C841        C  0.11547309  0.75004322  0.49974733     0.98590
C842        C  0.09814476  0.87445290  0.49782521     0.98670
N843        N  0.98993503  0.83722284  0.43504799    -0.06640
N844        N  0.97918564  0.85890950  0.41708162    -0.62010
N845        N  0.02047969  0.76863160  0.43320009    -0.05950
N846        N  0.02982576  0.75651842  0.40731407    -0.58740
N847        N  0.99046844  0.76793821  0.43452750    -0.07260
N848        N  0.97946588  0.75493370  0.40995292    -0.61580
N849        N  0.01983000  0.83738686  0.43467532    -0.06250
N850        N  0.03014345  0.85911268  0.41653970    -0.58760
Mn851      Mn  0.96450919  0.80206125  0.46035870     1.20190
Mn852      Mn  0.04636703  0.80305043  0.45902526     1.10090
Cl853      Cl  0.00612528  0.80213193  0.50052682    -0.86730
C854        C  0.00455767  0.87241400  0.40593976     0.95600
C855        C  0.00399037  0.74798726  0.39290610     0.95400
N856        N  0.85079194  0.00292187  0.43458944    -0.06890
N857        N  0.87230341  0.01357170  0.41643138    -0.59010
N858        N  0.78210632  0.97282949  0.43322714    -0.06570
N859        N  0.76896529  0.96306759  0.40802818    -0.61130
N860        N  0.78141340  0.00277335  0.43384239    -0.06160
N861        N  0.76751126  0.01349651  0.40944259    -0.58980
N862        N  0.85120850  0.97307484  0.43510521    -0.05840
N863        N  0.87297330  0.96266434  0.41727103    -0.61490
C864        C  0.88600950  0.98820513  0.40601766     0.95290
C865        C  0.75953031  0.98863732  0.39348606     0.95070
N866        N  0.78249144  0.92108858  0.51645116    -0.07070
N867        N  0.76893614  0.89607249  0.52645585    -0.59580
N868        N  0.85155155  0.92305796  0.48626442    -0.05190
N869        N  0.87326149  0.90520600  0.47579065    -0.60840
N870        N  0.85168284  0.92309359  0.51622253    -0.07100
N871        N  0.87350229  0.90525331  0.52680104    -0.59850
N872        N  0.78226051  0.92165334  0.48636046    -0.04830
N873        N  0.76833894  0.89736013  0.47585667    -0.60920
Mn874      Mn  0.81645838  0.94731305  0.45998726     1.18440
C875        C  0.75976226  0.88156703  0.50095645     0.97370
C876        C  0.88682878  0.89445202  0.50131088     0.98040
N877        N  0.78153387  0.05504277  0.48429742    -0.07120
N878        N  0.76811808  0.07954749  0.47317446    -0.63430
N879        N  0.85126142  0.05367691  0.51358293    -0.05920
N880        N  0.87281615  0.07202076  0.52335504    -0.64100
N881        N  0.85079706  0.05335035  0.48367267    -0.06630
N882        N  0.87200170  0.07137667  0.47231796    -0.63690
N883        N  0.78218779  0.05620824  0.51428934    -0.05520
N884        N  0.76955029  0.08183437  0.52365576    -0.64380
Mn885      Mn  0.81574730  0.02865305  0.45891337     1.10660
C886        C  0.76039602  0.09615267  0.49781534     0.98590
C887        C  0.88562559  0.08262567  0.49733793     0.98670
N888        N  0.85168244  0.97397524  0.56582238    -0.06640
N889        N  0.87324444  0.96381010  0.58417620    -0.62010
N890        N  0.78189795  0.00399463  0.56637467    -0.05950
N891        N  0.76896269  0.01567786  0.59066298    -0.58740
N892        N  0.78298580  0.97407583  0.56893496    -0.07260
N893        N  0.77171626  0.96559254  0.59574364    -0.61580
N894        N  0.85147788  0.00385562  0.56515668    -0.06250
N895        N  0.87293970  0.01469970  0.58306428    -0.58760
Mn896      Mn  0.81678499  0.94764180  0.54221609     1.20190
Mn897      Mn  0.81638202  0.02958515  0.54013932     1.10090
Cl898      Cl  0.81577153  0.98826762  0.50035836    -0.86730
C899        C  0.88638134  0.98946357  0.59455438     0.95600
C900        C  0.76272209  0.99177523  0.60913457     0.95400
N901        N  0.15622520  0.92708467  0.51088762    -0.06890
N902        N  0.13490914  0.90910863  0.52206967    -0.59010
N903        N  0.22466002  0.92539955  0.47980494    -0.06570
N904        N  0.23711199  0.90005766  0.46969274    -0.61130
N905        N  0.22518727  0.92559139  0.50984294    -0.06160
N906        N  0.23807429  0.90048153  0.52019709    -0.58980
N907        N  0.15566902  0.92709837  0.48097544    -0.05840
N908        N  0.13394868  0.90903370  0.47102816    -0.61490
C909        C  0.12114148  0.89824069  0.49695451     0.95290
C910        C  0.24557340  0.88457681  0.49502344     0.95070
N911        N  0.22300992  0.00786740  0.42637834    -0.07070
N912        N  0.23464246  0.01730754  0.40009969    -0.59580
N913        N  0.15469469  0.97738108  0.43048053    -0.05190
N914        N  0.13292170  0.96657615  0.41301540    -0.60840
N915        N  0.15430373  0.00723138  0.43013802    -0.07100
N916        N  0.13231510  0.01749461  0.41242293    -0.59850
N917        N  0.22395527  0.97786520  0.42784141    -0.04830
N918        N  0.23672947  0.96695199  0.40302634    -0.60920
Mn919      Mn  0.19013369  0.95173931  0.45446958     1.18440
C920        C  0.24320298  0.99155423  0.38569135     0.97370
C921        C  0.11914313  0.99186414  0.40215859     0.98040
N922        N  0.22552839  0.97742303  0.56145788    -0.07120
N923        N  0.23907034  0.96738865  0.58643722    -0.63430
N924        N  0.15593413  0.00661618  0.56017039    -0.05920
N925        N  0.13390518  0.01689362  0.57772552    -0.64100
N926        N  0.15635902  0.97678700  0.56051234    -0.06630
N927        N  0.13463440  0.96597297  0.57829661    -0.63690
N928        N  0.22514168  0.00738049  0.56115047    -0.05520
N929        N  0.23842834  0.01781684  0.58590199    -0.64380
Mn930      Mn  0.19126910  0.95149850  0.53592664     1.10660
C931        C  0.24717131  0.99270762  0.60161818     0.98590
C932        C  0.12077071  0.99126859  0.58863858     0.98670
N933        N  0.15412658  0.05728930  0.48005095    -0.06640
N934        N  0.13211535  0.07514563  0.47002397    -0.62010
N935        N  0.22395199  0.05905983  0.50880459    -0.05950
N936        N  0.23544501  0.08428723  0.51981515    -0.58740
N937        N  0.22264554  0.06082536  0.47877205    -0.07260
N938        N  0.23247328  0.08782450  0.46950970    -0.61580
N939        N  0.15471951  0.05699357  0.50997883    -0.06250
N940        N  0.13312526  0.07462486  0.52104441    -0.58760
Mn941      Mn  0.18898434  0.03359033  0.45346918     1.20190
Mn942      Mn  0.19034559  0.03269904  0.53520379     1.10090
Cl943      Cl  0.19086261  0.99240473  0.49472859    -0.86730
C944        C  0.11914755  0.08556910  0.49585104     0.95600
C945        C  0.24033130  0.10234673  0.49541471     0.95400
N946        N  0.93598432  0.14231671  0.48055572    -0.06890
N947        N  0.91856553  0.12011060  0.47052264    -0.59010
N948        N  0.93359096  0.21158711  0.50995932    -0.06570
N949        N  0.90928151  0.22542040  0.52073327    -0.61130
N950        N  0.93291462  0.21149149  0.47993040    -0.06160
N951        N  0.90776451  0.22497644  0.47015387    -0.58980
N952        N  0.93626213  0.14240289  0.51048284    -0.05840
N953        N  0.91911789  0.12037109  0.52156798    -0.61490
C954        C  0.90845435  0.10660066  0.49641854     0.95290
C955        C  0.89331836  0.23405746  0.49581351     0.95070
N956        N  0.01432064  0.21196432  0.56354053    -0.07070
N957        N  0.02277791  0.22481796  0.58936702    -0.59580
N958        N  0.98584038  0.14278229  0.56112698    -0.05190
N959        N  0.97554707  0.12088855  0.57914546    -0.60840
N960        N  0.01571725  0.14309370  0.56121602    -0.07100
N961        N  0.02651414  0.12149433  0.57915807    -0.59850
N962        N  0.98437849  0.21217545  0.56162183    -0.04830
N963        N  0.97242334  0.22559616  0.58552770    -0.60920
Mn964      Mn  0.95983110  0.17753966  0.53596458     1.18440
C965        C  0.99634947  0.23333023  0.60291418     0.97370
C966        C  0.00123429  0.10776200  0.58996892     0.98040
N967        N  0.98620802  0.21215001  0.42822549    -0.07120
N968        N  0.97695164  0.22502459  0.40253141    -0.63430
N969        N  0.01638684  0.14344805  0.43035956    -0.05920
N970        N  0.02707424  0.12195172  0.41239214    -0.64100
N971        N  0.98647525  0.14321161  0.43024316    -0.06630
N972        N  0.97614246  0.12162853  0.41229509    -0.63690
N973        N  0.01620392  0.21293814  0.42964639    -0.05520
N974        N  0.02732734  0.22676603  0.40533993    -0.64380
Mn975      Mn  0.96001395  0.17767780  0.45433193     1.10660
C976        C  0.00284408  0.23408265  0.38834668     0.98590
C977        C  0.00168442  0.10846911  0.40148768     0.98670
N978        N  0.06644711  0.14356195  0.51137192    -0.06640
N979        N  0.08467372  0.12200496  0.52185819    -0.62010
N980        N  0.06838986  0.21247647  0.48146084    -0.05950
N981        N  0.09378400  0.22560157  0.47182189    -0.58740
N982        N  0.06740964  0.21272988  0.51149852    -0.07260
N983        N  0.09193739  0.22610740  0.52228415    -0.61580
N984        N  0.06629656  0.14360830  0.48142134    -0.06250
N985        N  0.08435746  0.12221670  0.47082180    -0.58760
Mn986      Mn  0.04128880  0.17826994  0.53721186     1.20190
Mn987      Mn  0.04203916  0.17846573  0.45540338     1.10090
Cl988      Cl  0.00081913  0.17855638  0.49569973    -0.86730
C989        C  0.09544702  0.10884040  0.49626595     0.95600
C990        C  0.10835985  0.23429627  0.49753717     0.95400
N991        N  0.01867845  0.92450343  0.34650972    -0.06890
N992        N  0.02961870  0.90671230  0.36827740    -0.59010
N993        N  0.98737436  0.92090802  0.27832814    -0.06570
N994        N  0.97705628  0.89534824  0.26661158    -0.61130
N995        N  0.01736989  0.92136843  0.27733505    -0.06160
N996        N  0.02747308  0.89604145  0.26490912    -0.58980
N997        N  0.98879595  0.92436747  0.34715877    -0.05840
N998        N  0.97866097  0.90656194  0.36923680    -0.61490
C999        C  0.00434567  0.89593045  0.38230341     0.95290
C1000       C  0.00214425  0.87989682  0.25803997     0.95070
N1001       N  0.93392563  0.00193906  0.27739868    -0.07070
N1002       N  0.90847436  0.01091500  0.26405272    -0.59580
N1003       N  0.93786805  0.97350084  0.34714449    -0.05190
N1004       N  0.92043621  0.96292470  0.36931404    -0.60840
N1005       N  0.93732681  0.00334393  0.34656230    -0.07100
N1006       N  0.91949099  0.01381859  0.36828244    -0.59850
N1007       N  0.93531355  0.97200800  0.27778224    -0.04830
N1008       N  0.91109429  0.96048311  0.26450340    -0.60920
Mn1009     Mn  0.96211767  0.94756342  0.31225845     1.18440
C1010       C  0.89452058  0.98487624  0.25569219     0.97370
C1011       C  0.90935841  0.98833926  0.38235891     0.98040
N1012       N  0.06894431  0.97521946  0.27489562    -0.07120
N1013       N  0.09426627  0.96596775  0.26144024    -0.63430
N1014       N  0.06715546  0.00571776  0.34331770    -0.05920
N1015       N  0.08475197  0.01669531  0.36491849    -0.64100
N1016       N  0.06765214  0.97585035  0.34388378    -0.06630
N1017       N  0.08554892  0.96577739  0.36581442    -0.63690
N1018       N  0.06746950  0.00520679  0.27395353    -0.05520
N1019       N  0.09144276  0.01627764  0.25955303    -0.64380
Mn1020     Mn  0.04354840  0.94893485  0.31018643     1.10660
C1021       C  0.10811591  0.99173520  0.25155298     0.98590
C1022       C  0.09581264  0.99148705  0.37876373     0.98670
N1023       N  0.98645256  0.05488846  0.34431937    -0.06640
N1024       N  0.97608721  0.07311734  0.36573165    -0.62010
N1025       N  0.01446912  0.05715786  0.27472285    -0.05950
N1026       N  0.02264286  0.08361581  0.26258368    -0.58740
N1027       N  0.98453508  0.05486862  0.27466148    -0.07260
N1028       N  0.97245058  0.07916520  0.26180157    -0.61580
N1029       N  0.01634061  0.05544031  0.34369056    -0.06250
N1030       N  0.02701366  0.07403304  0.36459490    -0.58760
Mn1031     Mn  0.96031079  0.02899037  0.31039039     1.20190
Mn1032     Mn  0.04171326  0.03109054  0.30848841     1.10090
Cl1033     Cl  0.00195327  0.98914626  0.30970121    -0.86730
C1034       C  0.00164906  0.08470373  0.37826671     0.95600
C1035       C  0.99612410  0.09726703  0.25454719     0.95400
N1036       N  0.98999744  0.92525655  0.65212864    -0.06890
N1037       N  0.97933310  0.90690009  0.63098585    -0.59010
N1038       N  0.02241458  0.92587230  0.72087553    -0.06570
N1039       N  0.03402790  0.90255459  0.73585188    -0.61130
N1040       N  0.99244694  0.92454220  0.72152607    -0.06160
N1041       N  0.98358027  0.89989849  0.73655789    -0.58980
N1042       N  0.01987317  0.92576985  0.65133777    -0.05840
N1043       N  0.03025896  0.90794099  0.62969045    -0.61490
C1044       C  0.00477446  0.89650657  0.61712007     0.95290
C1045       C  0.00972684  0.88639899  0.74577262     0.95070
N1046       N  0.07384920  0.00685683  0.71613511    -0.07070
N1047       N  0.09909531  0.01774916  0.72796495    -0.59580
N1048       N  0.06932584  0.97611722  0.64784453    -0.05190
N1049       N  0.08709468  0.96557844  0.62610420    -0.60840
N1050       N  0.06878514  0.00594728  0.64714620    -0.07100
N1051       N  0.08617205  0.01648728  0.62496247    -0.59850
N1052       N  0.07458999  0.97693049  0.71667655    -0.04830
N1053       N  0.10052602  0.96733979  0.72865493    -0.60920
Mn1054     Mn  0.04671850  0.95086066  0.68457013     1.18440
C1055       C  0.11569623  0.99299903  0.73591203     0.97370
C1056       C  0.09717092  0.99104947  0.61195206     0.98040
N1057       N  0.94002279  0.97612336  0.72254554    -0.07120
N1058       N  0.91605799  0.96568079  0.73747079    -0.63430
N1059       N  0.93873159  0.00530948  0.65273918    -0.05920
N1060       N  0.92045744  0.01549538  0.63108864    -0.64100
N1061       N  0.93911304  0.97542474  0.65313016    -0.06630
N1062       N  0.92105154  0.96459752  0.63180208    -0.63690
N1063       N  0.93963766  0.00613729  0.72209593    -0.05520
N1064       N  0.91525700  0.01611490  0.73658486    -0.64380
Mn1065     Mn  0.96497705  0.94992597  0.68764844     1.10660
C1066       C  0.90064225  0.99069353  0.74625265     0.98590
C1067       C  0.90977444  0.98985572  0.61819122     0.98670
N1068       N  0.01826518  0.05572651  0.64837934    -0.06640
N1069       N  0.02789697  0.07347022  0.62601416    -0.62010
N1070       N  0.99179837  0.05939490  0.71841548    -0.05950
N1071       N  0.98318164  0.08568717  0.73012382    -0.58740
N1072       N  0.02180880  0.05805043  0.71763419    -0.07260
N1073       N  0.03361788  0.08289358  0.72930880    -0.61580
N1074       N  0.98840449  0.05583005  0.64963915    -0.06250
N1075       N  0.97697614  0.07364362  0.62817091    -0.58760
Mn1076     Mn  0.04578825  0.03180034  0.68266132     1.20190
Mn1077     Mn  0.96424238  0.03199043  0.68621588     1.10090
Cl1078     Cl  0.00533705  0.99116573  0.68619170    -0.86730
C1079       C  0.00190997  0.08424870  0.61355789     0.95600
C1080       C  0.00952235  0.10016274  0.73690424     0.95400
C1081       C  0.99012101  0.25097280  0.23475859    -0.00200
C1082       C  0.99372266  0.22937339  0.25738779    -0.00200
C1083       C  0.76307053  0.98732192  0.26211540    -0.00200
C1084       C  0.74075395  0.98894520  0.24008054    -0.00200
C1085       C  0.00156854  0.72654046  0.23913235    -0.00200
C1086       C  0.00967811  0.74841895  0.26013802    -0.00200
C1087       C  0.26109806  0.99546715  0.23123748    -0.00200
C1088       C  0.23955523  0.00025699  0.25352333    -0.00200
C1089       C  0.26158699  0.25521471  0.50683885    -0.00200
C1090       C  0.24012563  0.23454083  0.49702627    -0.00200
C1091       C  0.73982520  0.24951330  0.48960318    -0.00200
C1092       C  0.76263091  0.22816832  0.49222051    -0.00200
C1093       C  0.27002773  0.73267728  0.50478266    -0.00200
C1094       C  0.24696798  0.75337063  0.50931326    -0.00200
C1095       C  0.24696814  0.01014545  0.73292573    -0.00200
C1096       C  0.26972893  0.00850491  0.75474587    -0.00200
C1097       C  0.24017180  0.24961919  0.99611650    -0.00200
C1098       C  0.26214708  0.22743344  0.99544242    -0.00200
C1099       C  0.24806998  0.72923353  0.98890289    -0.00200
C1100       C  0.27275323  0.74839298  0.99108893    -0.00200
C1101       C  0.51566923  0.74813443  0.23246833    -0.00200
C1102       C  0.51926588  0.72729522  0.25572088    -0.00200
C1103       C  0.50301275  0.25087601  0.26141809    -0.00200
C1104       C  0.50510774  0.22847246  0.23943762    -0.00200
C1105       C  0.51321653  0.23988690  0.76088697    -0.00200
C1106       C  0.50796798  0.26331416  0.73989812    -0.00200
C1107       C  0.00285302  0.25418715  0.75682493    -0.00200
C1108       C  0.00269521  0.23226298  0.73458615    -0.00200
C1109       C  0.76082936  0.25818660  0.00000148    -0.00200
C1110       C  0.73917794  0.23547504  0.00063052    -0.00200
C1111       C  0.26698028  0.48341237  0.25977594    -0.00200
C1112       C  0.24569427  0.47791454  0.23750105    -0.00200
C1113       C  0.74298518  0.48912634  0.26099574    -0.00200
C1114       C  0.76555732  0.49048756  0.23892720    -0.00200
C1115       C  0.26440789  0.48882938  0.73802953    -0.00200
C1116       C  0.24218233  0.49733078  0.75865890    -0.00200
C1117       C  0.00888908  0.73329369  0.76157092    -0.00200
C1118       C  0.01004215  0.75584720  0.73964309    -0.00200
C1119       C  0.74813389  0.01141172  0.76098663    -0.00200
C1120       C  0.77218302  0.01013675  0.74067905    -0.00200
C1121       C  0.76903624  0.73432026  0.99795831    -0.00200
C1122       C  0.74678048  0.75488044  0.00623542    -0.00200
C1123       C  0.74477122  0.48679860  0.73609401    -0.00200
C1124       C  0.76550793  0.48383812  0.75936495    -0.00200
C1125       C  0.74661673  0.72873979  0.51151160    -0.00200
C1126       C  0.76759923  0.75177305  0.50855595    -0.00200
C1127       C  0.50824142  0.73662039  0.73387225    -0.00200
C1128       C  0.50918633  0.75814490  0.75647508    -0.00200
C1129       C  0.85564224  0.01801438  0.76628356    -0.06550
C1130       C  0.86752494  0.99104720  0.75414486    -0.00620
C1131       C  0.84682236  0.96793698  0.74515932    -0.09190
C1132       C  0.81564492  0.97500828  0.74378628    -0.06570
C1133       C  0.80420926  0.00382321  0.75131848    -0.00630
C1134       C  0.82433708  0.02498514  0.76525997    -0.09100
C1135       C  0.81544941  0.05578500  0.77769767     0.61280
H1136       H  0.87135253  0.03497184  0.77474059     0.11970
H1137       H  0.79984239  0.95840998  0.73491462     0.11980
C1138       C  0.85699346  0.93647291  0.73531811     0.61510
F1139       F  0.82127384  0.05620772  0.80865489    -0.23660
F1140       F  0.78535615  0.06283816  0.77328981    -0.20990
F1141       F  0.83268075  0.07821790  0.76366714    -0.20660
F1142       F  0.87581836  0.92384805  0.75728202    -0.20710
F1143       F  0.87213547  0.93832527  0.70771883    -0.21040
F1144       F  0.83260187  0.91691728  0.73167032    -0.23710
C1145       C  0.02901125  0.18396822  0.72500468    -0.06550
C1146       C  0.00536067  0.19842889  0.74092577    -0.00620
C1147       C  0.98438783  0.17969871  0.75751767    -0.09190
C1148       C  0.98895936  0.14794224  0.75815758    -0.06570
C1149       C  0.01134905  0.13377906  0.74053687    -0.00630
C1150       C  0.03179689  0.15223695  0.72333700    -0.09100
C1151       C  0.05522902  0.13912467  0.70145353     0.61280
H1152       H  0.04476490  0.19810990  0.71230533     0.11970
H1153       H  0.97327442  0.13365600  0.77090661     0.11980
C1154       C  0.95575175  0.19060635  0.77322750     0.61510
F1155       F  0.07039068  0.16153837  0.68510378    -0.23660
F1156       F  0.04094982  0.12059262  0.68054365    -0.20990
F1157       F  0.07682984  0.12270219  0.71750162    -0.20660
F1158       F  0.93166607  0.17155527  0.76640658    -0.20710
F1159       F  0.94729904  0.21919201  0.76414338    -0.21040
F1160       F  0.96019402  0.19015728  0.80441541    -0.23710
C1161       C  0.16086865  0.02448963  0.74539229    -0.06550
C1162       C  0.14918977  0.99514137  0.74204971    -0.00620
C1163       C  0.16998365  0.97040131  0.74204579    -0.09190
C1164       C  0.20151200  0.97668261  0.74325631    -0.06570
C1165       C  0.21341828  0.00647274  0.74185869    -0.00630
C1166       C  0.19219717  0.03088782  0.74496956    -0.09100
C1167       C  0.20124857  0.06350108  0.75043445     0.61280
H1168       H  0.14482624  0.04297097  0.74770692     0.11970
H1169       H  0.21717199  0.95790657  0.74387205     0.11980
C1170       C  0.15961694  0.93758641  0.73937756     0.61510
F1171       F  0.17674911  0.08331548  0.74938865    -0.23660
F1172       F  0.22136642  0.07326519  0.72864622    -0.20990
F1173       F  0.21356220  0.06544399  0.77915442    -0.20660
F1174       F  0.14665619  0.93305987  0.71106406    -0.20710
F1175       F  0.13870251  0.93089582  0.76202574    -0.21040
F1176       F  0.18355876  0.91729987  0.74234642    -0.23710
C1177       C  0.03743905  0.83826325  0.73958024    -0.06550
C1178       C  0.01215249  0.85314025  0.75201328    -0.00620
C1179       C  0.98941458  0.83553725  0.76673075    -0.09190
C1180       C  0.99118411  0.80352072  0.76509643    -0.06570
C1181       C  0.01421685  0.78880445  0.74828911    -0.00630
C1182       C  0.03924171  0.80653908  0.73767098    -0.09100
C1183       C  0.06879595  0.79283014  0.72603610     0.61280
H1184       H  0.05556607  0.85184274  0.72987417     0.11970
H1185       H  0.97304157  0.78996733  0.77477941     0.11980
C1186       C  0.96284872  0.85020938  0.78304970     0.61510
F1187       F  0.08992871  0.81480712  0.71792376    -0.23660
F1188       F  0.06395630  0.77537306  0.70067013    -0.20990
F1189       F  0.08171087  0.77551289  0.74885997    -0.20660
F1190       F  0.94260299  0.86208309  0.76200386    -0.20710
F1191       F  0.97324935  0.87321231  0.80164082    -0.21040
F1192       F  0.94734527  0.82942294  0.80113200    -0.23710
C1193       C  0.15543907  0.02238108  0.25005157    -0.06550
C1194       C  0.14149922  0.99415831  0.24460599    -0.00620
C1195       C  0.16027356  0.96927603  0.23612844    -0.09190
C1196       C  0.19223976  0.97288755  0.23676965    -0.06570
C1197       C  0.20600342  0.00021333  0.24596619    -0.00630
C1198       C  0.18720845  0.02582080  0.25133096    -0.09100
C1199       C  0.20028741  0.05665708  0.25930968     0.61280
H1200       H  0.14122391  0.04166079  0.25549108     0.11970
H1201       H  0.20681897  0.95360284  0.23221622     0.11980
C1202       C  0.14709232  0.93876603  0.22722176     0.61510
F1203       F  0.17820135  0.07910933  0.25968412    -0.23660
F1204       F  0.22185643  0.06512497  0.23800335    -0.20990
F1205       F  0.21327378  0.05542523  0.28787966    -0.20660
F1206       F  0.12341015  0.94294819  0.20686382    -0.20710
F1207       F  0.13663736  0.92357545  0.25286959    -0.21040
F1208       F  0.16867267  0.92057755  0.21332209    -0.23710
C1209       C  0.03163697  0.83235677  0.25276503    -0.06550
C1210       C  0.00292380  0.84633546  0.25211729    -0.00620
C1211       C  0.97672916  0.82751016  0.24868549    -0.09190
C1212       C  0.98066815  0.79564976  0.24717793    -0.06570
C1213       C  0.00918708  0.78177556  0.25154061    -0.00630
C1214       C  0.03536872  0.80070023  0.25258816    -0.09100
C1215       C  0.06792659  0.78941626  0.25338834     0.61280
H1216       H  0.05184350  0.84633442  0.25458946     0.11970
H1217       H  0.96099240  0.78098737  0.24528456     0.11980
C1218       C  0.94454817  0.84017141  0.24862423     0.61510
F1219       F  0.08510091  0.80539055  0.23217815    -0.23660
F1220       F  0.07047900  0.75926079  0.24626831    -0.20990
F1221       F  0.07999053  0.79412450  0.28203455    -0.20660
F1222       F  0.94189457  0.86290974  0.22684183    -0.20710
F1223       F  0.93765611  0.85155926  0.27710489    -0.21040
F1224       F  0.92314125  0.81808585  0.24207712    -0.23710
C1225       C  0.81209603  0.00367007  0.23670600    -0.06550
C1226       C  0.79631791  0.98185914  0.25447476    -0.00620
C1227       C  0.81385642  0.95841673  0.26874974    -0.09190
C1228       C  0.84570775  0.95973325  0.26705083    -0.06570
C1229       C  0.86111386  0.98280921  0.25115525    -0.00630
C1230       C  0.84406121  0.00450187  0.23460731    -0.09100
C1231       C  0.85935370  0.02927097  0.21580618     0.61280
H1232       H  0.79981588  0.02221688  0.22675112     0.11970
H1233       H  0.85878538  0.94293519  0.27966027     0.11980
C1234       C  0.80124116  0.93194767  0.28727709     0.61510
F1235       F  0.83889036  0.04386769  0.19668150    -0.23660
F1236       F  0.88198600  0.01680647  0.19787697    -0.20990
F1237       F  0.87190408  0.05075874  0.23484393    -0.20660
F1238       F  0.77066992  0.92738857  0.28325975    -0.20710
F1239       F  0.80680604  0.93683176  0.31785868    -0.21040
F1240       F  0.81564656  0.90534126  0.27871996    -0.23710
C1241       C  0.96986050  0.17942944  0.26326395    -0.06550
C1242       C  0.99469468  0.19578458  0.25164493    -0.00620
C1243       C  0.01990591  0.17937527  0.23980714    -0.09190
C1244       C  0.01836882  0.14728437  0.23910886    -0.06570
C1245       C  0.99317712  0.13099597  0.25056054    -0.00630
C1246       C  0.96781023  0.14768918  0.26197842    -0.09100
C1247       C  0.93873042  0.13289277  0.27390693     0.61280
H1248       H  0.95163931  0.19218935  0.27373224     0.11970
H1249       H  0.03783090  0.13468360  0.23073658     0.11980
C1250       C  0.04966359  0.19370563  0.22956216     0.61510
F1251       F  0.91695532  0.15411494  0.28204186    -0.23660
F1252       F  0.94500373  0.11553325  0.29957406    -0.20990
F1253       F  0.92600447  0.11502663  0.25147601    -0.20660
F1254       F  0.07347636  0.18039246  0.24540780    -0.20710
F1255       F  0.05106973  0.22457183  0.23451396    -0.21040
F1256       F  0.05373506  0.18854287  0.19878570    -0.23710
C1257       C  0.97392265  0.22790594  0.68685426    -0.06550
C1258       C  0.99986042  0.23990908  0.70102073    -0.00620
C1259       C  0.02293745  0.25306281  0.68207693    -0.09190
C1260       C  0.01876157  0.25347338  0.65025304    -0.06570
C1261       C  0.99397499  0.23931215  0.63628046    -0.00630
C1262       C  0.97037154  0.22713654  0.65504267    -0.09100
C1263       C  0.94221761  0.21162598  0.64226046     0.61280
H1264       H  0.95696089  0.21719598  0.70126613     0.11970
H1265       H  0.03647855  0.26300520  0.63583182     0.11980
C1266       C  0.05337500  0.26502044  0.69277509     0.61510
F1267       F  0.92243484  0.20204927  0.66497430    -0.23660
F1268       F  0.95062798  0.18621882  0.62589161    -0.20990
F1269       F  0.92640137  0.23171294  0.62373965    -0.20660
F1270       F  0.05947378  0.25791260  0.72249544    -0.20710
F1271       F  0.05396465  0.29627508  0.68918486    -0.21040
F1272       F  0.07652836  0.25255193  0.67546897    -0.23710
C1273       C  0.84390889  0.22571925  0.52139624    -0.06550
C1274       C  0.85988572  0.23962905  0.49731743    -0.00620
C1275       C  0.84327111  0.25616755  0.47501706    -0.09190
C1276       C  0.81113765  0.25472195  0.47550549    -0.06570
C1277       C  0.79539131  0.23716451  0.49743121    -0.00630
C1278       C  0.81206038  0.22529236  0.52250152    -0.09100
C1279       C  0.79727616  0.21185647  0.55079750     0.61280
H1280       H  0.85638106  0.21412549  0.53934214     0.11970
H1281       H  0.79828971  0.26566476  0.45750457     0.11980
C1282       C  0.85922117  0.27509105  0.45081962     0.61510
F1283       F  0.81374130  0.21973702  0.57642997    -0.23660
F1284       F  0.79681640  0.18051806  0.54875211    -0.20990
F1285       F  0.76805866  0.22272279  0.55486064    -0.20660
F1286       F  0.87330511  0.25634902  0.42999961    -0.20710
F1287       F  0.88074683  0.29352377  0.46433271    -0.21040
F1288       F  0.83898454  0.29360402  0.43515972    -0.23710
C1289       C  0.19098347  0.24372758  0.52366906    -0.06550
C1290       C  0.20674572  0.24356971  0.49581233    -0.00620
C1291       C  0.18931170  0.24622881  0.46867433    -0.09190
C1292       C  0.15727756  0.24471688  0.47048223    -0.06570
C1293       C  0.14170678  0.24176708  0.49840881    -0.00630
C1294       C  0.15905301  0.24297178  0.52577441    -0.09100
C1295       C  0.14483448  0.24161592  0.55741606     0.61280
H1296       H  0.20396375  0.24184013  0.54430002     0.11970
H1297       H  0.14431707  0.24513058  0.44947611     0.11980
C1298       C  0.20271022  0.25097310  0.43728553     0.61510
F1299       F  0.16586927  0.24732144  0.58013874    -0.23660
F1300       F  0.13299032  0.21295213  0.56286626    -0.20990
F1301       F  0.12218532  0.26331362  0.55980009    -0.20660
F1302       F  0.19744505  0.22551327  0.41981895    -0.20710
F1303       F  0.23339079  0.25671910  0.43804454    -0.21040
F1304       F  0.18886289  0.27576673  0.42347958    -0.23710
C1305       C  0.02402810  0.22842060  0.30432904    -0.06550
C1306       C  0.99655513  0.23710262  0.29053501    -0.00620
C1307       C  0.97287698  0.24885603  0.30917065    -0.09190
C1308       C  0.97780789  0.25099122  0.34076582    -0.06570
C1309       C  0.00411923  0.23937466  0.35477240    -0.00630
C1310       C  0.02816691  0.22834701  0.33602631    -0.09100
C1311       C  0.05731953  0.21436528  0.34869966     0.61280
H1312       H  0.04184638  0.21964760  0.28991466     0.11970
H1313       H  0.95964620  0.25958927  0.35506714     0.11980
C1314       C  0.94149533  0.25783811  0.29800672     0.61510
F1315       F  0.07719120  0.20554237  0.32589955    -0.23660
F1316       F  0.05046330  0.18865891  0.36575587    -0.20990
F1317       F  0.07242049  0.23530420  0.36648916    -0.20660
F1318       F  0.91956899  0.24435146  0.31630346    -0.20710
F1319       F  0.93586871  0.24891920  0.26867382    -0.21040
F1320       F  0.93840665  0.28906198  0.29966023    -0.23710
C1321       C  0.26322492  0.02195158  0.64652386    -0.06550
C1322       C  0.25413092  0.99384453  0.63493197    -0.00620
C1323       C  0.24795328  0.96986087  0.65585638    -0.09190
C1324       C  0.24814067  0.97624384  0.68724474    -0.06570
C1325       C  0.25412825  0.00532648  0.69919809    -0.00630
C1326       C  0.26341472  0.02833665  0.67789183    -0.09100
C1327       C  0.27313946  0.06032450  0.68526714     0.61280
H1328       H  0.26909093  0.03999587  0.63056057     0.11970
H1329       H  0.24197565  0.95820686  0.70245152     0.11980
C1330       C  0.23960518  0.93790149  0.64577152     0.61510
F1331       F  0.30214552  0.06536571  0.67400299    -0.23660
F1332       F  0.27366641  0.06583021  0.71564591    -0.20990
F1333       F  0.25334711  0.08082267  0.67170271    -0.20660
F1334       F  0.26174669  0.92686002  0.62635574    -0.20710
F1335       F  0.21168500  0.93829683  0.63124316    -0.21040
F1336       F  0.23742416  0.91775360  0.67009948    -0.23710
C1337       C  0.25397593  0.15222060  0.47199205    -0.06550
C1338       C  0.24274695  0.13610354  0.49742814    -0.00620
C1339       C  0.23207258  0.15279724  0.52303691    -0.09190
C1340       C  0.23319229  0.18460214  0.52181191    -0.06570
C1341       C  0.24511853  0.20084289  0.49691026    -0.00630
C1342       C  0.25648530  0.18422621  0.47164550    -0.09100
C1343       C  0.27288089  0.19837348  0.44464972     0.61280
H1344       H  0.26194911  0.13954987  0.45245397     0.11970
H1345       H  0.22550051  0.19724722  0.54123997     0.11980
C1346       C  0.21839652  0.13797050  0.55146581     0.61510
F1347       F  0.29936406  0.18233621  0.43895985    -0.23660
F1348       F  0.28117098  0.22811959  0.44956896    -0.20990
F1349       F  0.25450825  0.19691121  0.41916310    -0.20660
F1350       F  0.24016041  0.12045794  0.56610602    -0.20710
F1351       F  0.19370241  0.12022026  0.54354492    -0.21040
F1352       F  0.20808672  0.15913601  0.57227233    -0.23710
C1353       C  0.25622706  0.83848878  0.52562633    -0.06550
C1354       C  0.25198807  0.85113870  0.49644813    -0.00620
C1355       C  0.25056219  0.83112076  0.47112441    -0.09190
C1356       C  0.25280503  0.79952904  0.47653566    -0.06570
C1357       C  0.25316351  0.78696065  0.50610307    -0.00630
C1358       C  0.25608938  0.80704093  0.53113656    -0.09100
C1359       C  0.25889974  0.79752836  0.56424386     0.61280
H1360       H  0.25814453  0.85344897  0.54504070     0.11970
H1361       H  0.25248492  0.78418338  0.45750491     0.11980
C1362       C  0.24471494  0.84219870  0.43873606     0.61510
F1363       F  0.23388449  0.80792719  0.58022113    -0.23660
F1364       F  0.28485517  0.81034794  0.57650885    -0.20990
F1365       F  0.26099366  0.76668798  0.56820636    -0.20660
F1366       F  0.26648612  0.86333203  0.43028442    -0.20710
F1367       F  0.21601354  0.85503653  0.43690045    -0.21040
F1368       F  0.24577467  0.81875723  0.41789366    -0.23710
C1369       C  0.26437184  0.01278850  0.33744656    -0.06550
C1370       C  0.24695494  0.99018529  0.35193911    -0.00620
C1371       C  0.23018833  0.96955147  0.33366648    -0.09190
C1372       C  0.23179885  0.97250696  0.30184883    -0.06570
C1373       C  0.24646360  0.99697671  0.28719361    -0.00630
C1374       C  0.26383742  0.01730177  0.30552432    -0.09100
C1375       C  0.28109864  0.04478179  0.29372555     0.61280
H1376       H  0.27713529  0.02841743  0.35150931     0.11970
H1377       H  0.21997996  0.95617936  0.28794899     0.11980
C1378       C  0.20863149  0.94581713  0.34708527     0.61510
F1379       F  0.27381827  0.06997634  0.31096405    -0.23660
F1380       F  0.27437610  0.05178029  0.26398712    -0.20990
F1381       F  0.31200861  0.03940058  0.29621776    -0.20660
F1382       F  0.18770784  0.95972538  0.36599421    -0.20710
F1383       F  0.22492498  0.92419519  0.36327303    -0.21040
F1384       F  0.19230903  0.93079204  0.32482288    -0.23710
C1385       C  0.77202686  0.14455780  0.47191242    -0.06550
C1386       C  0.75623913  0.12977743  0.49549364    -0.00620
C1387       C  0.73917906  0.14750496  0.51625775    -0.09190
C1388       C  0.73937782  0.17958963  0.51297845    -0.06570
C1389       C  0.75693709  0.19440138  0.49035464    -0.00630
C1390       C  0.77238032  0.17620784  0.46853330    -0.09100
C1391       C  0.79009432  0.18847041  0.44128205     0.61280
H1392       H  0.78523465  0.13115601  0.45604047     0.11970
H1393       H  0.72728112  0.19333966  0.52931484     0.11980
C1394       C  0.72152072  0.13277263  0.54213030     0.61510
F1395       F  0.78377979  0.17118771  0.41582961    -0.23660
F1396       F  0.82091759  0.18662649  0.44732293    -0.20990
F1397       F  0.78276356  0.21801217  0.43383372    -0.20660
F1398       F  0.74151064  0.12015590  0.56299926    -0.20710
F1399       F  0.70279522  0.11026731  0.53083671    -0.21040
F1400       F  0.70350010  0.15359788  0.55727874    -0.23710
C1401       C  0.77036917  0.01340009  0.34418059    -0.06550
C1402       C  0.75481310  0.99030386  0.36000033    -0.00620
C1403       C  0.73754106  0.96902774  0.34333922    -0.09190
C1404       C  0.73769796  0.97094621  0.31122998    -0.06570
C1405       C  0.75598927  0.99213087  0.29534884    -0.00630
C1406       C  0.77089064  0.01508407  0.31232096    -0.09100
C1407       C  0.78771493  0.04180008  0.29806103     0.61280
H1408       H  0.78339526  0.02994289  0.35685760     0.11970
H1409       H  0.72566630  0.95394749  0.29847960     0.11980
C1410       C  0.72005450  0.94369931  0.35915825     0.61510
F1411       F  0.78290544  0.06775885  0.31504062    -0.23660
F1412       F  0.77770790  0.04819171  0.26892812    -0.20990
F1413       F  0.81856971  0.03568919  0.29755633    -0.20660
F1414       F  0.70200296  0.95560041  0.38197355    -0.20710
F1415       F  0.74021288  0.92294566  0.37166438    -0.21040
F1416       F  0.70136528  0.92831285  0.33912762    -0.23710
C1417       C  0.77786854  0.02111834  0.65399190    -0.06550
C1418       C  0.76178769  0.99601069  0.64290076    -0.00620
C1419       C  0.74827513  0.97560891  0.66406325    -0.09190
C1420       C  0.75113996  0.98151683  0.69563457    -0.06570
C1421       C  0.76768225  0.00665343  0.70668070    -0.00630
C1422       C  0.78198762  0.02646452  0.68511472    -0.09100
C1423       C  0.80311489  0.05246057  0.69380754     0.61280
H1424       H  0.78919357  0.03590511  0.63777914     0.11970
H1425       H  0.74159853  0.96567406  0.71203008     0.11980
C1426       C  0.73121625  0.94770821  0.65347482     0.61510
F1427       F  0.80913203  0.07170486  0.66939330    -0.23660
F1428       F  0.83060998  0.04082680  0.70358630    -0.20990
F1429       F  0.79043170  0.07009663  0.71619870    -0.20660
F1430       F  0.75133697  0.92742304  0.64046327    -0.20710
F1431       F  0.70946900  0.95603908  0.63222484    -0.21040
F1432       F  0.71663628  0.93300845  0.67738147    -0.23710
C1433       C  0.76724273  0.83192229  0.47597197    -0.06550
C1434       C  0.75398500  0.84822893  0.50000821    -0.00620
C1435       C  0.73860704  0.83192841  0.52335552    -0.09190
C1436       C  0.74043471  0.79990210  0.52372218    -0.06570
C1437       C  0.75757841  0.78393882  0.50192560    -0.00630
C1438       C  0.76852064  0.80007100  0.47608380    -0.09100
C1439       C  0.78249329  0.78477944  0.44856096     0.61280
H1440       H  0.77805630  0.84413388  0.45734696     0.11970
H1441       H  0.73083360  0.78752095  0.54270840     0.11980
C1442       C  0.72158189  0.84804608  0.54857468     0.61510
F1443       F  0.77276463  0.79917769  0.42214154    -0.23660
F1444       F  0.77403382  0.75464534  0.44646215    -0.20990
F1445       F  0.81385142  0.78677245  0.45014758    -0.20660
F1446       F  0.70346486  0.87077830  0.53632608    -0.20710
F1447       F  0.74203734  0.86057165  0.56880646    -0.21040
F1448       F  0.70293757  0.82823696  0.56464589    -0.23710
C1449       C  0.20000915  0.74785352  0.47822191    -0.06550
C1450       C  0.21372359  0.74446360  0.50702065    -0.00620
C1451       C  0.19459860  0.73675033  0.53208759    -0.09190
C1452       C  0.16279516  0.73799095  0.52825783    -0.06570
C1453       C  0.14909024  0.74408533  0.49992776    -0.00630
C1454       C  0.16825223  0.74714302  0.47390356    -0.09100
C1455       C  0.15596123  0.75084334  0.44170196     0.61280
H1456       H  0.21456913  0.75163883  0.45877211     0.11970
H1457       H  0.14837680  0.73429361  0.54800488     0.11980
C1458       C  0.20584648  0.72692716  0.56318028     0.61510
F1459       F  0.17883533  0.74950852  0.42001668    -0.23660
F1460       F  0.14174687  0.77874756  0.43855807    -0.20990
F1461       F  0.13564295  0.72769854  0.43551306    -0.20660
F1462       F  0.20341914  0.75087787  0.58320865    -0.20710
F1463       F  0.23534285  0.71668967  0.56230225    -0.21040
F1464       F  0.18829441  0.70307108  0.57409672    -0.23710
C1465       C  0.98230465  0.75396253  0.30898044    -0.06550
C1466       C  0.00830792  0.74249358  0.29424207    -0.00620
C1467       C  0.03180714  0.72987710  0.31296667    -0.09190
C1468       C  0.02876572  0.73127700  0.34497341    -0.06570
C1469       C  0.00276186  0.74302773  0.35926450    -0.00630
C1470       C  0.97824363  0.75322407  0.34068514    -0.09100
C1471       C  0.94801656  0.76436890  0.35349627     0.61280
H1472       H  0.96453862  0.76380692  0.29516558     0.11970
H1473       H  0.04734391  0.72322048  0.35916400     0.11980
C1474       C  0.06101123  0.71545969  0.30185766     0.61510
F1475       F  0.92712880  0.77109865  0.33080108    -0.23660
F1476       F  0.95243795  0.79057068  0.37011881    -0.20990
F1477       F  0.93520418  0.74197163  0.37172980    -0.20660
F1478       F  0.08541731  0.73339735  0.31018551    -0.20710
F1479       F  0.06188311  0.71148590  0.27102885    -0.21040
F1480       F  0.06430841  0.68707816  0.31529379    -0.23710
C1481       C  0.98437066  0.76125892  0.65620781    -0.06550
C1482       C  0.00574483  0.74286467  0.64157937    -0.00620
C1483       C  0.02584671  0.72510003  0.65941351    -0.09190
C1484       C  0.02531097  0.72832436  0.69144725    -0.06570
C1485       C  0.00558893  0.74901751  0.70611131    -0.00630
C1486       C  0.98335209  0.76434534  0.68790810    -0.09100
C1487       C  0.95887477  0.78520683  0.70041045     0.61280
H1488       H  0.96908608  0.77488473  0.64237237     0.11970
H1489       H  0.04207647  0.71638701  0.70490866     0.11980
C1490       C  0.04779454  0.70308189  0.64467935     0.61510
F1491       F  0.93438439  0.78749513  0.68065705    -0.23660
F1492       F  0.97063228  0.81402326  0.70422173    -0.20990
F1493       F  0.94752529  0.77417711  0.72751245    -0.20660
F1494       F  0.06958155  0.71892288  0.62830398    -0.20710
F1495       F  0.03204807  0.68414732  0.62524486    -0.21040
F1496       F  0.06250854  0.68511843  0.66613185    -0.23710
C1497       C  0.81601727  0.72604698  0.49061025    -0.06550
C1498       C  0.80158541  0.74654135  0.51064098    -0.00620
C1499       C  0.82022395  0.76361927  0.53084553    -0.09190
C1500       C  0.85191123  0.76157101  0.52814825    -0.06570
C1501       C  0.86610795  0.74221314  0.50732734    -0.00630
C1502       C  0.84800058  0.72318457  0.48905269    -0.09100
C1503       C  0.86241613  0.69975121  0.46843742     0.61280
H1504       H  0.80234473  0.71324045  0.47492902     0.11970
H1505       H  0.86595061  0.77634462  0.54188399     0.11980
C1506       C  0.80800341  0.78538274  0.55467260     0.61510
F1507       F  0.84082657  0.68098068  0.45543746    -0.23660
F1508       F  0.88217123  0.68175005  0.48523039    -0.20990
F1509       F  0.87834125  0.71405674  0.44525403    -0.20660
F1510       F  0.82835966  0.78848493  0.57852714    -0.20710
F1511       F  0.78114407  0.77506382  0.56723119    -0.21040
F1512       F  0.80367027  0.81371615  0.54158347    -0.23710
C1513       C  0.73180338  0.15257173  0.97703491    -0.06550
C1514       C  0.74952326  0.13763310  0.99904540    -0.00620
C1515       C  0.76798922  0.15520408  0.01858173    -0.09190
C1516       C  0.76707497  0.18732378  0.01594610    -0.06570
C1517       C  0.74687704  0.20231749  0.99577009    -0.00630
C1518       C  0.73047797  0.18428928  0.97451829    -0.09100
C1519       C  0.71081172  0.19660649  0.94873372     0.61280
H1520       H  0.71781597  0.13920185  0.96184202     0.11970
H1521       H  0.78011831  0.20090513  0.03167040     0.11980
C1522       C  0.78776133  0.14019370  0.04264302     0.61510
F1523       F  0.71688059  0.18070647  0.92231046    -0.23660
F1524       F  0.71604754  0.22674514  0.94217705    -0.20990
F1525       F  0.68046013  0.19275769  0.95615649    -0.20660
F1526       F  0.80624950  0.11861279  0.02928848    -0.20710
F1527       F  0.76957810  0.12631930  0.06439517    -0.21040
F1528       F  0.80618981  0.16103338  0.05721217    -0.23710
C1529       C  0.76117708  0.83905779  0.02657409    -0.06550
C1530       C  0.75135535  0.85356617  0.99962240    -0.00620
C1531       C  0.74276743  0.83523179  0.97453639    -0.09190
C1532       C  0.74127374  0.80366787  0.97882877    -0.06570
C1533       C  0.75184218  0.78879706  0.00528657    -0.00630
C1534       C  0.76307229  0.80708639  0.02946287    -0.09100
C1535       C  0.77637091  0.79501449  0.05900611     0.61280
H1536       H  0.76785167  0.85299915  0.04570047     0.11970
H1537       H  0.73261065  0.79003876  0.96050219     0.11980
C1538       C  0.73506052  0.84806696  0.94312499     0.61510
F1539       F  0.80222547  0.81135826  0.06629583    -0.23660
F1540       F  0.78482625  0.76498997  0.05736430    -0.20990
F1541       F  0.75534038  0.79853595  0.08217597    -0.20660
F1542       F  0.75880674  0.86602363  0.93272301    -0.20710
F1543       F  0.70849537  0.86487328  0.94442144    -0.21040
F1544       F  0.73079447  0.82542909  0.92180307    -0.23710
C1545       C  0.74069004  0.02900185  0.84602866    -0.06550
C1546       C  0.75390773  0.00326341  0.85970217    -0.00620
C1547       C  0.76809854  0.98147596  0.84078982    -0.09190
C1548       C  0.76773979  0.98609755  0.80883791    -0.06570
C1549       C  0.75355784  0.01158389  0.79509063    -0.00630
C1550       C  0.73992011  0.03355231  0.81444689    -0.09100
C1551       C  0.72320237  0.06194436  0.80387861     0.61280
H1552       H  0.72937532  0.04562572  0.86019531     0.11970
H1553       H  0.77660198  0.96852133  0.79421753     0.11980
C1554       C  0.78283576  0.95311714  0.85398177     0.61510
F1555       F  0.69255466  0.05888700  0.81043757    -0.23660
F1556       F  0.72634456  0.06786979  0.77335287    -0.20990
F1557       F  0.73441130  0.08691494  0.81921895    -0.20660
F1558       F  0.76067375  0.93373472  0.86520834    -0.20710
F1559       F  0.80247326  0.96093090  0.87724727    -0.21040
F1560       F  0.79940345  0.93758192  0.83222881    -0.23710
C1561       C  0.74727585  0.96415174  0.15647672    -0.06550
C1562       C  0.75157765  0.99224423  0.14168991    -0.00620
C1563       C  0.75764107  0.01812946  0.15966561    -0.09190
C1564       C  0.75471970  0.01557288  0.19149930    -0.06570
C1565       C  0.74842745  0.98787433  0.20646841    -0.00630
C1566       C  0.74681475  0.96121050  0.18835744    -0.09100
C1567       C  0.74453997  0.92910801  0.20066746     0.61280
H1568       H  0.74372584  0.94394485  0.14297476     0.11970
H1569       H  0.75758345  0.03568018  0.20485365     0.11980
C1570       C  0.76678780  0.04856328  0.14585387     0.61510
F1571       F  0.76413692  0.91030799  0.18481036    -0.23660
F1572       F  0.71514377  0.91852772  0.19704071    -0.20990
F1573       F  0.75267045  0.92722821  0.23072832    -0.20660
F1574       F  0.74150932  0.06312428  0.13397431    -0.20710
F1575       F  0.78817461  0.04429926  0.12311575    -0.21040
F1576       F  0.77965930  0.06743044  0.16740199    -0.23710
C1577       C  0.26241423  0.83074184  0.01852460    -0.06550
C1578       C  0.26703522  0.84692947  0.99101791    -0.00620
C1579       C  0.27352998  0.83018057  0.96419247    -0.09190
C1580       C  0.27773977  0.79874957  0.96684037    -0.06570
C1581       C  0.26987290  0.78225133  0.99312327    -0.00630
C1582       C  0.26297291  0.79864541  0.02003037    -0.09100
C1583       C  0.25957451  0.78417990  0.05135330     0.61280
H1584       H  0.25851862  0.84331778  0.03930307     0.11970
H1585       H  0.28601541  0.78664316  0.94737008     0.11980
C1586       C  0.27523250  0.84432237  0.93241765     0.61510
F1587       F  0.23535267  0.79725130  0.06656831    -0.23660
F1588       F  0.28587319  0.78933899  0.06783078    -0.20990
F1589       F  0.25445654  0.75330789  0.05040757    -0.20660
F1590       F  0.30152122  0.86132908  0.92931613    -0.20710
F1591       F  0.24990587  0.86237020  0.92730153    -0.21040
F1592       F  0.27549493  0.82248429  0.90985653    -0.23710
C1593       C  0.24146523  0.14381193  0.01343652    -0.06550
C1594       C  0.25403467  0.12961939  0.98792255    -0.00620
C1595       C  0.26464259  0.14811153  0.96325423    -0.09190
C1596       C  0.26493470  0.17980442  0.96683834    -0.06570
C1597       C  0.25444519  0.19409237  0.99330827    -0.00630
C1598       C  0.24218874  0.17552439  0.01720486    -0.09100
C1599       C  0.23156259  0.18642878  0.04807838     0.61280
H1600       H  0.23291552  0.12966083  0.03191530     0.11970
H1601       H  0.27509793  0.19395978  0.94927969     0.11980
C1602       C  0.27721244  0.13523084  0.93368806     0.61510
F1603       F  0.24652867  0.17035492  0.07081199    -0.23660
F1604       F  0.20062590  0.18133709  0.05086675    -0.20990
F1605       F  0.23710014  0.21654649  0.05285712    -0.20660
F1606       F  0.25595447  0.11617986  0.92062673    -0.20710
F1607       F  0.30392637  0.11952991  0.93935431    -0.21040
F1608       F  0.28375449  0.15779439  0.91247475    -0.23710
C1609       C  0.26851622  0.02528171  0.84037429    -0.06550
C1610       C  0.26180631  0.99656712  0.85278254    -0.00620
C1611       C  0.25330352  0.97298549  0.83275556    -0.09190
C1612       C  0.25334191  0.97896355  0.80106517    -0.06570
C1613       C  0.26237176  0.00719387  0.78845423    -0.00630
C1614       C  0.26869094  0.03130828  0.80902378    -0.09100
C1615       C  0.27618138  0.06392017  0.80039585     0.61280
H1616       H  0.27479526  0.04363215  0.85543063     0.11970
H1617       H  0.24760174  0.96077389  0.78602195     0.11980
C1618       C  0.24523880  0.94137244  0.84432135     0.61510
F1619       F  0.26007785  0.08364883  0.81885426    -0.23660
F1620       F  0.26843853  0.07101951  0.77099894    -0.20990
F1621       F  0.30692082  0.06905197  0.80465930    -0.20660
F1622       F  0.22391302  0.94330220  0.86742964    -0.20710
F1623       F  0.27110408  0.92699902  0.85513178    -0.21040
F1624       F  0.23307377  0.92351074  0.82153916    -0.23710
C1625       C  0.26454530  0.96283268  0.15135120    -0.06550
C1626       C  0.25114078  0.98626656  0.13405346    -0.00620
C1627       C  0.23429459  0.00898360  0.14943338    -0.09190
C1628       C  0.23508602  0.00966319  0.18159885    -0.06570
C1629       C  0.25229541  0.98854958  0.19868322    -0.00630
C1630       C  0.26444184  0.96299824  0.18333178    -0.09100
C1631       C  0.27801444  0.93574014  0.19974765     0.61280
H1632       H  0.27639442  0.94461539  0.13984133     0.11970
H1633       H  0.22429228  0.02827162  0.19331290     0.11980
C1634       C  0.21618558  0.03287972  0.13219256     0.61510
F1635       F  0.27067417  0.90930816  0.18451656    -0.23660
F1636       F  0.26677989  0.93280982  0.22905342    -0.20990
F1637       F  0.30934644  0.93847073  0.20053558    -0.20660
F1638       F  0.19915986  0.01925116  0.10960243    -0.20710
F1639       F  0.23564733  0.05399173  0.11921318    -0.21040
F1640       F  0.19633000  0.04813555  0.15124021    -0.23710
C1641       C  0.51188208  0.17677792  0.21606626    -0.06550
C1642       C  0.51039010  0.19358263  0.24341796    -0.00620
C1643       C  0.51185462  0.17544817  0.27083471    -0.09190
C1644       C  0.50287375  0.14455476  0.26962684    -0.06570
C1645       C  0.50161904  0.12917578  0.24193004    -0.00630
C1646       C  0.50677530  0.14554563  0.21461392    -0.09100
C1647       C  0.50676632  0.13032788  0.18362595     0.61280
H1648       H  0.51706702  0.18808435  0.19488213     0.11970
H1649       H  0.50238116  0.13109535  0.29045791     0.11980
C1650       C  0.53521030  0.18094937  0.29565108     0.61510
F1651       F  0.50912081  0.15100267  0.15975049    -0.23660
F1652       F  0.47988767  0.11457924  0.17978303    -0.20990
F1653       F  0.53119738  0.11072977  0.18168958    -0.20660
F1654       F  0.52121841  0.18723071  0.32301894    -0.20710
F1655       F  0.55493467  0.20368281  0.28743198    -0.21040
F1656       F  0.55306282  0.15529352  0.30018108    -0.23710
C1657       C  0.53126772  0.83313759  0.22479720    -0.06550
C1658       C  0.50646006  0.84590306  0.24022246    -0.00620
C1659       C  0.48566359  0.82637727  0.25533598    -0.09190
C1660       C  0.49078136  0.79465536  0.25451400    -0.06570
C1661       C  0.51506670  0.78186098  0.23787443    -0.00630
C1662       C  0.53633443  0.80181000  0.22358108    -0.09100
C1663       C  0.56496954  0.79210349  0.20667522     0.61280
H1664       H  0.54699323  0.84793272  0.21273349     0.11970
H1665       H  0.47492612  0.77959084  0.26583842     0.11980
C1666       C  0.45784928  0.83877779  0.27148857     0.61510
F1667       F  0.58910241  0.81042581  0.21513002    -0.23660
F1668       F  0.56036158  0.79542304  0.17566389    -0.20990
F1669       F  0.57367412  0.76268674  0.21284173    -0.20660
F1670       F  0.43795051  0.85104611  0.25031795    -0.20710
F1671       F  0.46644059  0.86103360  0.29181126    -0.21040
F1672       F  0.44251245  0.81631411  0.28756918    -0.23710
C1673       C  0.34573201  0.01285971  0.22216842    -0.06550
C1674       C  0.35931590  0.99132034  0.24150193    -0.00620
C1675       C  0.34052221  0.97283809  0.26015717    -0.09190
C1676       C  0.30850377  0.97602693  0.25791211    -0.06570
C1677       C  0.29487161  0.99692655  0.23743014    -0.00630
C1678       C  0.31418671  0.01668451  0.22028809    -0.09100
C1679       C  0.30314777  0.04182656  0.19899280     0.61280
H1680       H  0.36011209  0.02678108  0.20760589     0.11970
H1681       H  0.29395529  0.96107474  0.27108006     0.11980
C1682       C  0.35423856  0.94983712  0.28205005     0.61510
F1683       F  0.32211365  0.06686583  0.20100173    -0.23660
F1684       F  0.27432435  0.05182866  0.20600101    -0.20990
F1685       F  0.30365225  0.03151522  0.16932441    -0.20660
F1686       F  0.37483568  0.96414616  0.30093663    -0.20710
F1687       F  0.36905087  0.92738786  0.26591416    -0.21040
F1688       F  0.33226707  0.93612786  0.30013426    -0.23710
C1689       C  0.65739996  0.01417171  0.25104498    -0.06550
C1690       C  0.64235095  0.98611947  0.24887653    -0.00620
C1691       C  0.66008210  0.95911879  0.25048255    -0.09190
C1692       C  0.69198239  0.96160678  0.24937328    -0.06570
C1693       C  0.70716965  0.98966680  0.24799648    -0.00630
C1694       C  0.68942248  0.01657436  0.25156579    -0.09100
C1695       C  0.70317311  0.04757876  0.25768088     0.61280
H1696       H  0.64369741  0.03458453  0.25177865     0.11970
H1697       H  0.70533707  0.94115892  0.24932187     0.11980
C1698       C  0.64609987  0.92756211  0.25264882     0.61510
F1699       F  0.68116679  0.06983217  0.26113816    -0.23660
F1700       F  0.72165853  0.05670455  0.23413107    -0.20990
F1701       F  0.71954767  0.04639787  0.28438449    -0.20660
F1702       F  0.63401965  0.91948522  0.22478386    -0.20710
F1703       F  0.62360297  0.92706180  0.27472919    -0.21040
F1704       F  0.66744981  0.90576456  0.26069259    -0.23710
C1705       C  0.69009443  0.26167826  0.98587752    -0.06550
C1706       C  0.70592205  0.24243528  0.00638370    -0.00620
C1707       C  0.68866618  0.22650832  0.02894314    -0.09190
C1708       C  0.65686197  0.22750329  0.02751245    -0.06570
C1709       C  0.64121121  0.24421261  0.00517738    -0.00630
C1710       C  0.65800650  0.26239891  0.98446748    -0.09100
C1711       C  0.64230874  0.28155797  0.96026455     0.61280
H1712       H  0.70283330  0.27392822  0.96873376     0.11970
H1713       H  0.64404645  0.21371858  0.04360380     0.11980
C1714       C  0.70170007  0.20719252  0.05470475     0.61510
F1715       F  0.66245415  0.30102743  0.94567434    -0.23660
F1716       F  0.61973278  0.29897574  0.97347533    -0.20990
F1717       F  0.62955467  0.26291572  0.93853682    -0.20660
F1718       F  0.73214166  0.21197164  0.05974569    -0.20710
F1719       F  0.69712741  0.17680143  0.04834338    -0.21040
F1720       F  0.68683291  0.21399855  0.08163984    -0.23710
C1721       C  0.31056030  0.21854074  0.02153830    -0.06550
C1722       C  0.29583654  0.23363592  0.99736966    -0.00620
C1723       C  0.31411404  0.24987206  0.97574417    -0.09190
C1724       C  0.34588463  0.25074872  0.98003842    -0.06570
C1725       C  0.36035342  0.23455369  0.00351174    -0.00630
C1726       C  0.34226272  0.21799388  0.02483470    -0.09100
C1727       C  0.35574662  0.19813551  0.05004877     0.61280
H1728       H  0.29664519  0.20609246  0.03770424     0.11970
H1729       H  0.35990171  0.26287121  0.96359427     0.11980
C1730       C  0.30290715  0.26527845  0.94686245     0.61510
F1731       F  0.33361759  0.18262173  0.06642293    -0.23660
F1732       F  0.37157534  0.21596625  0.07041562    -0.20990
F1733       F  0.37492235  0.17659366  0.03759013    -0.20660
F1734       F  0.30766790  0.29626669  0.94895575    -0.20710
F1735       F  0.27276977  0.26032087  0.94108141    -0.21040
F1736       F  0.31909990  0.25440140  0.92216784    -0.23710
C1737       C  0.53328068  0.24724435  0.84589256    -0.06550
C1738       C  0.50413659  0.24528848  0.85907194    -0.00620
C1739       C  0.47838002  0.24739998  0.83945558    -0.09190
C1740       C  0.48324213  0.25121929  0.80783998    -0.06570
C1741       C  0.51231219  0.24831791  0.79454227    -0.00630
C1742       C  0.53794180  0.24711906  0.81414395    -0.09100
C1743       C  0.57035061  0.24727792  0.80244572     0.61280
H1744       H  0.55290880  0.24716487  0.86075411     0.11970
H1745       H  0.46389074  0.25121430  0.79262234     0.11980
C1746       C  0.44596479  0.24261544  0.85069049     0.61510
F1747       F  0.59073609  0.23783345  0.82463052    -0.23660
F1748       F  0.57795503  0.27662908  0.79423004    -0.20990
F1749       F  0.57367800  0.22808384  0.77792677    -0.20660
F1750       F  0.43933350  0.26283979  0.87370168    -0.20710
F1751       F  0.44264481  0.21306577  0.86124959    -0.21040
F1752       F  0.42473767  0.24699642  0.82776138    -0.23710
C1753       C  0.47375575  0.23238886  0.15824929    -0.06550
C1754       C  0.50006892  0.24065481  0.14186319    -0.00620
C1755       C  0.52601646  0.25044557  0.15839415    -0.09190
C1756       C  0.52553858  0.24862569  0.19043373    -0.06570
C1757       C  0.49990071  0.23858496  0.20683550    -0.00630
C1758       C  0.47332550  0.23032461  0.19025404    -0.09100
C1759       C  0.44558974  0.21497197  0.20435229     0.61280
H1760       H  0.45388847  0.22465882  0.14592562     0.11970
H1761       H  0.54663071  0.25162594  0.20264199     0.11980
C1762       C  0.55516508  0.26074382  0.14285693     0.61510
F1763       F  0.41943499  0.22961794  0.19457960    -0.23660
F1764       F  0.44581208  0.21497720  0.23583421    -0.20990
F1765       F  0.44433718  0.18513242  0.19475033    -0.20660
F1766       F  0.54855157  0.28008651  0.11874368    -0.20710
F1767       F  0.57107608  0.23576237  0.13244598    -0.21040
F1768       F  0.57383879  0.27634915  0.16274446    -0.23710
C1769       C  0.66427549  0.01641155  0.73335085    -0.06550
C1770       C  0.65136519  0.99392133  0.75207741    -0.00620
C1771       C  0.67092294  0.97470718  0.76933836    -0.09190
C1772       C  0.70244282  0.97966417  0.76774793    -0.06570
C1773       C  0.71536119  0.00475113  0.75234271    -0.00630
C1774       C  0.69575997  0.02280929  0.73343974    -0.09100
C1775       C  0.70531071  0.04942643  0.71347412     0.61280
H1776       H  0.64914976  0.03057789  0.71981883     0.11970
H1777       H  0.71740939  0.96479908  0.78051871     0.11980
C1778       C  0.65900041  0.95054646  0.79136612     0.61510
F1779       F  0.68685769  0.07422097  0.71932638    -0.23660
F1780       F  0.70199408  0.04152761  0.68321698    -0.20990
F1781       F  0.73473102  0.05841681  0.71812406    -0.20660
F1782       F  0.64354714  0.92837448  0.77549072    -0.20710
F1783       F  0.63980290  0.96375190  0.81248557    -0.21040
F1784       F  0.68219014  0.93635369  0.80742700    -0.23710
C1785       C  0.32104758  0.03192330  0.74633343    -0.06550
C1786       C  0.30332879  0.00540375  0.74666885    -0.00620
C1787       C  0.31923148  0.97717886  0.74413389    -0.09190
C1788       C  0.35139994  0.97712453  0.74362228    -0.06570
C1789       C  0.36869793  0.00387313  0.74579999    -0.00630
C1790       C  0.35295654  0.03213921  0.74557492    -0.09100
C1791       C  0.36893099  0.06290696  0.74645246     0.61280
H1792       H  0.31007954  0.05343949  0.74879564     0.11970
H1793       H  0.36318100  0.95545423  0.74288138     0.11980
C1794       C  0.30452782  0.94613757  0.74253008     0.61510
F1795       F  0.34908259  0.08683591  0.74110068    -0.23660
F1796       F  0.39115820  0.06439093  0.72415321    -0.20990
F1797       F  0.38166262  0.06730727  0.77490226    -0.20660
F1798       F  0.31322760  0.93222680  0.71572839    -0.20710
F1799       F  0.27344162  0.94712411  0.74312565    -0.21040
F1800       F  0.31420473  0.92849330  0.76690230    -0.23710
C1801       C  0.52648302  0.15567846  0.73210544    -0.06550
C1802       C  0.51218700  0.13954136  0.75568317    -0.00620
C1803       C  0.50047138  0.15594160  0.78043542    -0.09190
C1804       C  0.49782796  0.18746325  0.77779064    -0.06570
C1805       C  0.51289669  0.20511977  0.75515840    -0.00630
C1806       C  0.52906651  0.18791824  0.73226513    -0.09100
C1807       C  0.55077541  0.20017818  0.70830844     0.61280
H1808       H  0.53739618  0.14275828  0.71420128     0.11970
H1809       H  0.48452265  0.19799747  0.79514788     0.11980
C1810       C  0.49394319  0.14085614  0.81114761     0.61510
F1811       F  0.57940338  0.18804931  0.71335098    -0.23660
F1812       F  0.55342177  0.23102154  0.70822612    -0.20990
F1813       F  0.54113158  0.19139975  0.67970499    -0.20660
F1814       F  0.51861327  0.12316328  0.81952106    -0.20710
F1815       F  0.46816764  0.12301451  0.80962023    -0.21040
F1816       F  0.48964587  0.16196505  0.83400922    -0.23710
C1817       C  0.48433434  0.84065891  0.76517196    -0.06550
C1818       C  0.50655112  0.85621989  0.74827991    -0.00620
C1819       C  0.52709598  0.83933649  0.73018209    -0.09190
C1820       C  0.52520482  0.80722860  0.73062215    -0.06570
C1821       C  0.50464099  0.79158342  0.74988789    -0.00630
C1822       C  0.48248470  0.80890163  0.76590764    -0.09100
C1823       C  0.45629088  0.79552537  0.78424789     0.61280
H1824       H  0.46846172  0.85352068  0.77893078     0.11970
H1825       H  0.54150051  0.79414220  0.71771428     0.11980
C1826       C  0.55142885  0.85502182  0.71127353     0.61510
F1827       F  0.43000398  0.81204827  0.77873915    -0.23660
F1828       F  0.46302097  0.79703586  0.81496824    -0.20990
F1829       F  0.44996256  0.76591090  0.77673287    -0.20660
F1830       F  0.57263250  0.86823131  0.73026672    -0.20710
F1831       F  0.53832065  0.87722703  0.69305301    -0.21040
F1832       F  0.56657522  0.83482540  0.69256684    -0.23710
C1833       C  0.35463900  0.73247957  0.96708320    -0.06550
C1834       C  0.36952663  0.73564966  0.99526558    -0.00620
C1835       C  0.35171451  0.73394399  0.02227433    -0.09190
C1836       C  0.31995272  0.73649861  0.01974355    -0.06570
C1837       C  0.30507598  0.73692147  0.99146751    -0.00630
C1838       C  0.32258930  0.73156441  0.96480454    -0.09100
C1839       C  0.30843349  0.72171978  0.93488971     0.61280
H1840       H  0.36836417  0.73083505  0.94666874     0.11970
H1841       H  0.30660614  0.73903976  0.04020360     0.11980
C1842       C  0.36543627  0.73022989  0.05383817     0.61510
F1843       F  0.32903720  0.72363211  0.91106345    -0.23660
F1844       F  0.28359490  0.73912585  0.92709444    -0.20990
F1845       F  0.29937416  0.69178714  0.93767222    -0.20660
F1846       F  0.37638848  0.75780419  0.06397582    -0.20710
F1847       F  0.38871751  0.70903934  0.05321180    -0.21040
F1848       F  0.34401281  0.71987055  0.07464019    -0.23710
C1849       C  0.66257935  0.74455305  0.02623254    -0.06550
C1850       C  0.64933200  0.74553996  0.99712039    -0.00620
C1851       C  0.66879242  0.74333178  0.97124108    -0.09190
C1852       C  0.70055672  0.74224390  0.97588856    -0.06570
C1853       C  0.71364501  0.74583012  0.00487054    -0.00630
C1854       C  0.69415143  0.74503796  0.03070460    -0.09100
C1855       C  0.70456443  0.74449463  0.06358830     0.61280
H1856       H  0.64806598  0.74486837  0.04621959     0.11970
H1857       H  0.71566774  0.74132692  0.95646635     0.11980
C1858       C  0.65690163  0.74411867  0.93874636     0.61510
F1859       F  0.69574078  0.77112053  0.07759908    -0.23660
F1860       F  0.73543320  0.74114177  0.06661050    -0.20990
F1861       F  0.69103234  0.72022820  0.07862691    -0.20660
F1862       F  0.64533211  0.77266939  0.93213248    -0.20710
F1863       F  0.63447774  0.72240608  0.93515895    -0.21040
F1864       F  0.67961017  0.73819422  0.91770741    -0.23710
C1865       C  0.48347838  0.74687657  0.15233051    -0.06550
C1866       C  0.50923801  0.73852347  0.13536932    -0.00620
C1867       C  0.53462284  0.72588880  0.15109650    -0.09190
C1868       C  0.53425684  0.72518821  0.18329661    -0.06570
C1869       C  0.51052073  0.73862459  0.19993859    -0.00630
C1870       C  0.48338275  0.74639364  0.18427005    -0.09100
C1871       C  0.45361252  0.75385129  0.20005109     0.61280
H1872       H  0.46332273  0.75504988  0.14064246     0.11970
H1873       H  0.55364960  0.71628518  0.19562994     0.11980
C1874       C  0.56265080  0.71459420  0.13443502     0.61510
F1875       F  0.42999173  0.73883525  0.18574838    -0.23660
F1876       F  0.44834192  0.78479400  0.19824090    -0.20990
F1877       F  0.45331178  0.74468325  0.23020398    -0.20660
F1878       F  0.57931150  0.73906037  0.12360413    -0.20710
F1879       F  0.55417749  0.69636008  0.11036862    -0.21040
F1880       F  0.58135444  0.69762347  0.15342151    -0.23710
C1881       C  0.53497981  0.76303981  0.83917889    -0.06550
C1882       C  0.51226958  0.74646395  0.85434377    -0.00620
C1883       C  0.49153513  0.72916082  0.83691851    -0.09190
C1884       C  0.49338584  0.73060131  0.80474548    -0.06570
C1885       C  0.51425944  0.74990222  0.78958505    -0.00630
C1886       C  0.53681774  0.76478083  0.80738754    -0.09100
C1887       C  0.56328063  0.78334776  0.79485505     0.61280
H1888       H  0.55117563  0.77603067  0.85238116     0.11970
H1889       H  0.47669406  0.71862790  0.79132070     0.11980
C1890       C  0.46696463  0.71013161  0.85205132     0.61510
F1891       F  0.55779929  0.81387695  0.79974558    -0.23660
F1892       F  0.56856782  0.77895288  0.76434791    -0.20990
F1893       F  0.58975392  0.77517932  0.80994017    -0.20660
F1894       F  0.44546321  0.72891449  0.86512395    -0.20710
F1895       F  0.47970054  0.69170932  0.87432726    -0.21040
F1896       F  0.45225951  0.69166818  0.83134745    -0.23710
C1897       C  0.81738280  0.71943347  0.02172743    -0.06550
C1898       C  0.80288160  0.74011796  0.00183920    -0.00620
C1899       C  0.82177759  0.76065262  0.98465302    -0.09190
C1900       C  0.85366265  0.75898109  0.98823471    -0.06570
C1901       C  0.86747472  0.73621667  0.00570562    -0.00630
C1902       C  0.84898777  0.71555851  0.02241089    -0.09100
C1903       C  0.86190563  0.68772776  0.03874583     0.61280
H1904       H  0.80337602  0.70453311  0.03557086     0.11970
H1905       H  0.86829963  0.77453305  0.97574870     0.11980
C1906       C  0.81057344  0.78307679  0.96085799     0.61510
F1907       F  0.83926316  0.66826712  0.04901723    -0.23660
F1908       F  0.87880545  0.69645765  0.06371747    -0.20990
F1909       F  0.88002072  0.67148919  0.01889094    -0.20660
F1910       F  0.80631124  0.81103468  0.97427566    -0.20710
F1911       F  0.78423865  0.77327455  0.94730423    -0.21040
F1912       F  0.83175034  0.78677367  0.93771910    -0.23710
C1913       C  0.20189092  0.72188913  0.01998560    -0.06550
C1914       C  0.21534090  0.73846100  0.99584215    -0.00620
C1915       C  0.19565661  0.75700931  0.97734419    -0.09190
C1916       C  0.16392468  0.75543860  0.98230435    -0.06570
C1917       C  0.15092046  0.73613890  0.00411877    -0.00630
C1918       C  0.17028289  0.71920935  0.02377685    -0.09100
C1919       C  0.15817366  0.69643474  0.04715207     0.61280
H1920       H  0.21661517  0.70899353  0.03497386     0.11970
H1921       H  0.14859699  0.76907948  0.96851937     0.11980
C1922       C  0.20607082  0.78081696  0.95440675     0.61510
F1923       F  0.18130188  0.68045649  0.06154159    -0.23660
F1924       F  0.13972285  0.67541055  0.03291716    -0.20990
F1925       F  0.14185101  0.71141552  0.06939909    -0.20660
F1926       F  0.23146853  0.77201297  0.93858772    -0.20710
F1927       F  0.21170644  0.80749577  0.96971593    -0.21040
F1928       F  0.18378378  0.78680873  0.93288030    -0.23710
C1929       C  0.03220924  0.75261920  0.80994352    -0.06550
C1930       C  0.00664786  0.74075424  0.79492265    -0.00620
C1931       C  0.98031199  0.73392429  0.81247404    -0.09190
C1932       C  0.98218545  0.73458273  0.84429122    -0.06570
C1933       C  0.00886293  0.74295698  0.85960594    -0.00630
C1934       C  0.03402754  0.75352593  0.84210001    -0.09100
C1935       C  0.06312922  0.76459935  0.85686337     0.61280
H1936       H  0.05172490  0.75905820  0.79635492     0.11970
H1937       H  0.96250227  0.72728126  0.85730997     0.11980
C1938       C  0.94968160  0.72552410  0.79916388     0.61510
F1939       F  0.08168149  0.77958082  0.83610635    -0.23660
F1940       F  0.07923183  0.74015769  0.86856717    -0.20990
F1941       F  0.05634325  0.78465258  0.88001263    -0.20660
F1942       F  0.94597093  0.69434058  0.80044964    -0.20710
F1943       F  0.94658359  0.73547598  0.76960947    -0.21040
F1944       F  0.92653983  0.73902204  0.81570445    -0.23710
C1945       C  0.97791150  0.72243669  0.15485970    -0.06550
C1946       C  0.00198780  0.73764008  0.14038520    -0.00620
C1947       C  0.02267668  0.75414077  0.15830983    -0.09190
C1948       C  0.02111119  0.75110841  0.19030552    -0.06570
C1949       C  0.99821935  0.73395190  0.20523148    -0.00630
C1950       C  0.97499761  0.72091019  0.18669207    -0.09100
C1951       C  0.94681704  0.70537566  0.19941308     0.61280
H1952       H  0.96171432  0.71033722  0.14091872     0.11970
H1953       H  0.03886502  0.76118557  0.20349530     0.11980
C1954       C  0.04568540  0.77545953  0.14379671     0.61510
F1955       F  0.92489138  0.70094083  0.17722678    -0.23660
F1956       F  0.93377747  0.72333014  0.22143432    -0.20990
F1957       F  0.95411651  0.67713952  0.21108611    -0.20660
F1958       F  0.03111758  0.79431300  0.12303312    -0.20710
F1959       F  0.06796256  0.75904121  0.12900390    -0.21040
F1960       F  0.05960667  0.79364901  0.16527200    -0.23710
C1961       C  0.84416200  0.23743267  0.97953682    -0.06550
C1962       C  0.85963305  0.25155317  0.00353920    -0.00620
C1963       C  0.84226664  0.26618055  0.02658909    -0.09190
C1964       C  0.81042259  0.26469203  0.02516287    -0.06570
C1965       C  0.79473604  0.25242192  0.00031259    -0.00630
C1966       C  0.81218462  0.23895762  0.97652547    -0.09100
C1967       C  0.79900772  0.22733005  0.94697386     0.61280
H1968       H  0.85748220  0.22677244  0.96176376     0.11970
H1969       H  0.79737295  0.27480581  0.04315654     0.11980
C1970       C  0.85651247  0.28545949  0.05153250     0.61510
F1971       F  0.81771216  0.23524375  0.92276476    -0.23660
F1972       F  0.77089780  0.23953716  0.94093096    -0.20990
F1973       F  0.79684234  0.19600450  0.94834216    -0.20660
F1974       F  0.87479270  0.30769269  0.03857327    -0.20710
F1975       F  0.87346128  0.26731130  0.07099676    -0.21040
F1976       F  0.83486171  0.30021197  0.06897742    -0.23710
C1977       C  0.97578083  0.25909630  0.80547199    -0.06550
C1978       C  0.00144809  0.24728098  0.79056912    -0.00620
C1979       C  0.02527271  0.23472207  0.80888602    -0.09190
C1980       C  0.02205589  0.23466904  0.84086881    -0.06570
C1981       C  0.99686487  0.24754614  0.85555820    -0.00630
C1982       C  0.97277864  0.25955993  0.83734687    -0.09100
C1983       C  0.94453673  0.27447961  0.85075085     0.61280
H1984       H  0.95815495  0.26923735  0.79154155     0.11970
H1985       H  0.04044549  0.22569312  0.85476052     0.11980
C1986       C  0.05541165  0.22265486  0.79739780     0.61510
F1987       F  0.92452461  0.28450413  0.82846323    -0.23660
F1988       F  0.95280160  0.29952299  0.86771279    -0.20990
F1989       F  0.92900515  0.25378394  0.86884542    -0.20660
F1990       F  0.07887223  0.23929698  0.81003741    -0.20710
F1991       F  0.05848372  0.22420648  0.76645306    -0.21040
F1992       F  0.05850143  0.19256185  0.80626124    -0.23710
C1993       C  0.15664992  0.22914738  0.97777389    -0.06550
C1994       C  0.14216185  0.24145961  0.00327245    -0.00620
C1995       C  0.16038458  0.25168846  0.02803543    -0.09190
C1996       C  0.19211081  0.25223376  0.02443562    -0.06570
C1997       C  0.20672693  0.24201877  0.99801550    -0.00630
C1998       C  0.18846451  0.22984198  0.97411647    -0.09100
C1999       C  0.19991433  0.21911634  0.94346417     0.61280
H2000       H  0.14267232  0.22074428  0.95930504     0.11970
H2001       H  0.20605125  0.26227763  0.04201249     0.11980
C2002       C  0.14720489  0.26348827  0.05780153     0.61510
F2003       F  0.18332632  0.23289591  0.92036482    -0.23660
F2004       F  0.19613478  0.18797790  0.94162550    -0.20990
F2005       F  0.22982802  0.22590345  0.93833962    -0.20660
F2006       F  0.12807049  0.24188782  0.07054948    -0.20710
F2007       F  0.13149178  0.29028288  0.05257782    -0.21040
F2008       F  0.16959705  0.26951187  0.07910340    -0.23710
C2009       C  0.01989002  0.26057402  0.18850642    -0.06550
C2010       C  0.99577296  0.24399585  0.20164265    -0.00620
C2011       C  0.97777154  0.22521640  0.18225753    -0.09190
C2012       C  0.98417546  0.22521605  0.15078088    -0.06570
C2013       C  0.00602283  0.24448901  0.13776328    -0.00630
C2014       C  0.02467338  0.26232702  0.15702985    -0.09100
C2015       C  0.04801257  0.28504580  0.14489994     0.61280
H2016       H  0.03416689  0.27392991  0.20334825     0.11970
H2017       H  0.97027657  0.21161169  0.13570335     0.11980
C2018       C  0.95076680  0.20594668  0.19195916     0.61510
F2019       F  0.06174000  0.30134530  0.16798850    -0.23660
F2020       F  0.03394915  0.30584221  0.12573327    -0.20990
F2021       F  0.07075405  0.26994124  0.12934753    -0.20660
F2022       F  0.94047008  0.21223856  0.22072511    -0.20710
F2023       F  0.95879236  0.17558624  0.19060114    -0.21040
F2024       F  0.92664084  0.21100749  0.17228892    -0.23710
C2025       C  0.81385225  0.51899485  0.24821646    -0.06550
C2026       C  0.79904306  0.49077738  0.24653228    -0.00620
C2027       C  0.81734735  0.46398818  0.24703582    -0.09190
C2028       C  0.84911205  0.46677790  0.24752446    -0.06570
C2029       C  0.86391655  0.49496697  0.24585937    -0.00630
C2030       C  0.84581398  0.52186044  0.24649246    -0.09100
C2031       C  0.85933934  0.55356368  0.24341684     0.61280
H2032       H  0.80023232  0.53920106  0.24923143     0.11970
H2033       H  0.86257144  0.44611450  0.24768344     0.11980
C2034       C  0.80554386  0.43158753  0.24712533     0.61510
F2035       F  0.83758843  0.57610561  0.24662046    -0.23660
F2036       F  0.87216111  0.55713647  0.21479666    -0.20990
F2037       F  0.88115221  0.55797040  0.26562652    -0.20660
F2038       F  0.81441418  0.41743128  0.22052935    -0.20710
F2039       F  0.77452856  0.42972159  0.24959856    -0.21040
F2040       F  0.81784495  0.41586066  0.27164267    -0.23710
C2041       C  0.16147630  0.45658366  0.24585501    -0.06550
C2042       C  0.14772503  0.48527492  0.24840169    -0.00620
C2043       C  0.16681692  0.51111171  0.25246954    -0.09190
C2044       C  0.19870969  0.50722581  0.25113118    -0.06570
C2045       C  0.21210102  0.47898128  0.24458526    -0.00630
C2046       C  0.19309567  0.45297259  0.24294688    -0.09100
C2047       C  0.20550678  0.42149250  0.23670512     0.61280
H2048       H  0.14703422  0.43682252  0.24376558     0.11970
H2049       H  0.21352613  0.52671996  0.25339347     0.11980
C2050       C  0.15419297  0.54290162  0.25700690     0.61510
F2051       F  0.18340231  0.39921634  0.23950389    -0.23660
F2052       F  0.22831359  0.41439807  0.25707341    -0.20990
F2053       F  0.21652758  0.42057963  0.20733889    -0.20660
F2054       F  0.13176070  0.54240738  0.27913960    -0.20710
F2055       F  0.14233815  0.55385707  0.22987444    -0.21040
F2056       F  0.17650668  0.56298922  0.26634025    -0.23710
C2057       C  0.99075257  0.64291507  0.26521340    -0.06550
C2058       C  0.01366626  0.62905867  0.24793535    -0.00620
C2059       C  0.03471590  0.64774610  0.23180920    -0.09190
C2060       C  0.02951706  0.67915497  0.23070102    -0.06570
C2061       C  0.00539946  0.69318381  0.24621859    -0.00630
C2062       C  0.98589902  0.67462566  0.26463370    -0.09100
C2063       C  0.95785167  0.68559408  0.28140717     0.61280
H2064       H  0.97504500  0.62846811  0.27775106     0.11970
H2065       H  0.04440216  0.69344014  0.21708453     0.11980
C2066       C  0.06205366  0.63514690  0.21469471     0.61510
F2067       F  0.93307563  0.66780725  0.27371864    -0.23660
F2068       F  0.95036423  0.71509120  0.27444857    -0.20990
F2069       F  0.96266816  0.68303331  0.31245427    -0.20660
F2070       F  0.05243353  0.61688525  0.19108577    -0.20710
F2071       F  0.08023686  0.61862897  0.23452855    -0.21040
F2072       F  0.07997699  0.65794777  0.20218933    -0.23710
C2073       C  0.01289945  0.29756029  0.25917020    -0.06550
C2074       C  0.98902235  0.28467224  0.24194828    -0.00620
C2075       C  0.96809052  0.30481260  0.22730730    -0.09190
C2076       C  0.97254477  0.33621877  0.22960095    -0.06570
C2077       C  0.99665957  0.34896533  0.24598301    -0.00630
C2078       C  0.01690663  0.32935727  0.26168622    -0.09100
C2079       C  0.04284424  0.34181965  0.28058185     0.61280
H2080       H  0.02988544  0.28260545  0.26890176     0.11970
H2081       H  0.95764021  0.35116174  0.21674432     0.11980
C2082       C  0.94275636  0.29490294  0.20605988     0.61510
F2083       F  0.05690140  0.31921499  0.29762212    -0.23660
F2084       F  0.03185342  0.36343950  0.30048900    -0.20990
F2085       F  0.06446167  0.35492391  0.26173183    -0.20660
F2086       F  0.93132944  0.26694824  0.21381591    -0.20710
F2087       F  0.95360974  0.29419092  0.17648887    -0.21040
F2088       F  0.91855799  0.31505505  0.20721568    -0.23710
C2089       C  0.23758143  0.52165036  0.84282584    -0.06550
C2090       C  0.25383821  0.49834034  0.85739381    -0.00620
C2091       C  0.27039896  0.47766499  0.83955880    -0.09190
C2092       C  0.26674463  0.47860124  0.80767701    -0.06570
C2093       C  0.24900280  0.50094696  0.79258957    -0.00630
C2094       C  0.23525398  0.52391548  0.81097014    -0.09100
C2095       C  0.21788686  0.55101419  0.79815075     0.61280
H2096       H  0.22519322  0.53759128  0.85680990     0.11970
H2097       H  0.27678616  0.46068414  0.79476506     0.11980
C2098       C  0.29233686  0.45521615  0.85405326     0.61510
F2099       F  0.21231834  0.57280385  0.82007427    -0.23660
F2100       F  0.18997452  0.54201126  0.78715843    -0.20990
F2101       F  0.23480187  0.56492073  0.77560933    -0.20660
F2102       F  0.27649953  0.43284703  0.86961515    -0.20710
F2103       F  0.31117951  0.47032439  0.87413125    -0.21040
F2104       F  0.31055463  0.44138056  0.83246640    -0.23710
C2105       C  0.26671823  0.46319755  0.15333850    -0.06550
C2106       C  0.25449711  0.48946338  0.13960675    -0.00620
C2107       C  0.24503765  0.51371935  0.15880693    -0.09190
C2108       C  0.24472046  0.50888715  0.19051497    -0.06570
C2109       C  0.25347033  0.48125276  0.20412606    -0.00630
C2110       C  0.26693757  0.45872690  0.18523917    -0.09100
C2111       C  0.28195040  0.42979021  0.19662962     0.61280
H2112       H  0.27540732  0.44534703  0.13882002     0.11970
H2113       H  0.23656107  0.52671869  0.20519321     0.11980
C2114       C  0.23393083  0.54429438  0.14663968     0.61510
F2115       F  0.26957110  0.40494792  0.18200591    -0.23660
F2116       F  0.27863689  0.42534727  0.22743823    -0.20990
F2117       F  0.31270629  0.43103820  0.19003878    -0.20660
F2118       F  0.20722589  0.54050580  0.13044974    -0.20710
F2119       F  0.25599972  0.55724868  0.12816413    -0.21040
F2120       F  0.22795988  0.56468140  0.16977627    -0.23710
C2121       C  0.24076272  0.64490221  0.96930578    -0.06550
C2122       C  0.25324032  0.63076053  0.99520303    -0.00620
C2123       C  0.26660103  0.64912688  0.01789858    -0.09190
C2124       C  0.26647923  0.68102362  0.01376629    -0.06570
C2125       C  0.25311332  0.69524298  0.98805515    -0.00630
C2126       C  0.24004002  0.67644507  0.96536805    -0.09100
C2127       C  0.22426936  0.68750151  0.93666466     0.61280
H2128       H  0.23001049  0.63114620  0.95199968     0.11970
H2129       H  0.27472175  0.69524212  0.03192115     0.11980
C2130       C  0.28006531  0.63545390  0.04672333     0.61510
F2131       F  0.23654629  0.67297891  0.91163570    -0.23660
F2132       F  0.22731709  0.71802280  0.93173939    -0.20990
F2133       F  0.19359468  0.68068335  0.93850190    -0.20660
F2134       F  0.30001522  0.61231383  0.03936999    -0.20710
F2135       F  0.25704586  0.62402238  0.06500099    -0.21040
F2136       F  0.29593327  0.65683118  0.06336903    -0.23710
C2137       C  0.26617725  0.33254959  0.01187714    -0.06550
C2138       C  0.24844377  0.34808797  0.99034868    -0.00620
C2139       C  0.22963588  0.33108163  0.97039620    -0.09190
C2140       C  0.23047983  0.29927716  0.97218689    -0.06570
C2141       C  0.24668703  0.28341250  0.99489292    -0.00630
C2142       C  0.26443203  0.30074781  0.01586595    -0.09100
C2143       C  0.28026520  0.28848689  0.04403674     0.61280
H2144       H  0.27985542  0.34580588  0.02746370     0.11970
H2145       H  0.21702895  0.28623977  0.95632317     0.11980
C2146       C  0.20677231  0.34585571  0.94880430     0.61510
F2147       F  0.31139838  0.28894156  0.03944544    -0.23660
F2148       F  0.27137281  0.25962251  0.05161185    -0.20990
F2149       F  0.27347397  0.30659141  0.06879643    -0.20660
F2150       F  0.22183512  0.36203615  0.92626580    -0.20710
F2151       F  0.18784217  0.36500740  0.96493929    -0.21040
F2152       F  0.18840943  0.32467360  0.93461723    -0.23710
C2153       C  0.19421701  0.47038527  0.76704424    -0.06550
C2154       C  0.20899259  0.49389452  0.75108779    -0.00620
C2155       C  0.19122978  0.51333140  0.73183494    -0.09190
C2156       C  0.15949053  0.50883804  0.73061551    -0.06570
C2157       C  0.14482880  0.48667105  0.74839580    -0.00630
C2158       C  0.16272584  0.46584508  0.76575488    -0.09100
C2159       C  0.14922580  0.43956908  0.78414671     0.61280
H2160       H  0.20795828  0.45560092  0.78131353     0.11970
H2161       H  0.14561070  0.52437774  0.71725022     0.11980
C2162       C  0.20296842  0.54104471  0.71480167     0.61510
F2163       F  0.17139544  0.42204845  0.79824437    -0.23660
F2164       F  0.13310512  0.42057816  0.76507255    -0.20990
F2165       F  0.13034164  0.45060358  0.80673434    -0.20660
F2166       F  0.20150136  0.53582552  0.68380983    -0.20710
F2167       F  0.23225634  0.54848668  0.72244510    -0.21040
F2168       F  0.18499740  0.56598332  0.72148158    -0.23710
C2169       C  0.98265803  0.33811753  0.73966129    -0.06550
C2170       C  0.00910456  0.35249126  0.75002167    -0.00620
C2171       C  0.03460736  0.33408199  0.75816743    -0.09190
C2172       C  0.03112921  0.30231872  0.75860648    -0.06570
C2173       C  0.00426144  0.28776137  0.74951973    -0.00630
C2174       C  0.97945852  0.30626025  0.73941597    -0.09100
C2175       C  0.94836858  0.29498240  0.72992242     0.61280
H2176       H  0.96339860  0.35210644  0.73301134     0.11970
H2177       H  0.04933705  0.28830773  0.76757400     0.11980
C2178       C  0.06520965  0.34709990  0.76773335     0.61510
F2179       F  0.92642106  0.30750971  0.74866344    -0.23660
F2180       F  0.94545164  0.26410924  0.73155397    -0.20990
F2181       F  0.94273926  0.30403147  0.70019246    -0.20660
F2182       F  0.06225667  0.36235113  0.79501415    -0.20710
F2183       F  0.07600286  0.36660023  0.74531356    -0.21040
F2184       F  0.08697258  0.32466393  0.77190148    -0.23710
C2185       C  0.03361767  0.64996537  0.75621376    -0.06550
C2186       C  0.00628022  0.63548567  0.74857805    -0.00620
C2187       C  0.98088304  0.65382634  0.74028059    -0.09190
C2188       C  0.98359538  0.68582098  0.74189030    -0.06570
C2189       C  0.00968952  0.69989163  0.75383585    -0.00630
C2190       C  0.03578396  0.68154944  0.75947013    -0.09100
C2191       C  0.06613811  0.69441677  0.76941422     0.61280
H2192       H  0.05322459  0.63617648  0.76190576     0.11970
H2193       H  0.96468493  0.69993847  0.73507798     0.11980
C2194       C  0.95065166  0.64011589  0.73091519     0.61510
F2195       F  0.08980497  0.67435968  0.76398653    -0.23660
F2196       F  0.06552309  0.70027829  0.80023749    -0.20990
F2197       F  0.07250170  0.72056337  0.75333795    -0.20660
F2198       F  0.93628086  0.62772408  0.75616518    -0.20710
F2199       F  0.95528681  0.61779325  0.70939523    -0.21040
F2200       F  0.93135575  0.66171801  0.71835706    -0.23710
C2201       C  0.84996335  0.46229789  0.75741119    -0.06550
C2202       C  0.86375743  0.49010715  0.74944545    -0.00620
C2203       C  0.84481680  0.51458806  0.74001652    -0.09190
C2204       C  0.81288590  0.51107335  0.74185796    -0.06570
C2205       C  0.79928331  0.48411565  0.75283536    -0.00630
C2206       C  0.81825853  0.45890072  0.75967624    -0.09100
C2207       C  0.80554609  0.42859287  0.77036791     0.61280
H2208       H  0.86431044  0.44334719  0.76387562     0.11970
H2209       H  0.79828380  0.53006298  0.73618626     0.11980
C2210       C  0.85788137  0.54440078  0.72835469     0.61510
F2211       F  0.82774388  0.40629306  0.77206596    -0.23660
F2212       F  0.78361451  0.41868569  0.75030551    -0.20990
F2213       F  0.79322138  0.43165491  0.79906884    -0.20660
F2214       F  0.88059739  0.53881075  0.70727460    -0.20710
F2215       F  0.86965198  0.56080543  0.75233802    -0.21040
F2216       F  0.83589177  0.56208494  0.71418905    -0.23710
C2217       C  0.74652601  0.34139209  0.02242266    -0.06550
C2218       C  0.75159740  0.35605001  0.99431718    -0.00620
C2219       C  0.75272722  0.33792264  0.96760069    -0.09190
C2220       C  0.75404612  0.30607595  0.97089750    -0.06570
C2221       C  0.75235907  0.29143730  0.99939708    -0.00630
C2222       C  0.74677012  0.30953003  0.02559343    -0.09100
C2223       C  0.74193126  0.29734915  0.05760104     0.61280
H2224       H  0.74392410  0.35504415  0.04272083     0.11970
H2225       H  0.75750594  0.29226289  0.95095760     0.11980
C2226       C  0.75346309  0.35139832  0.93561023     0.61510
F2227       F  0.71309816  0.30526736  0.06740336    -0.23660
F2228       F  0.76312871  0.31004689  0.07701809    -0.20990
F2229       F  0.74468605  0.26636517  0.05958184    -0.20660
F2230       F  0.78182041  0.36368526  0.92961326    -0.20710
F2231       F  0.73129078  0.37357272  0.93267991    -0.21040
F2232       F  0.74771595  0.32962452  0.91374218    -0.23710
C2233       C  0.74643106  0.68491915  0.01723573    -0.06550
C2234       C  0.76095081  0.70101063  0.99336683    -0.00620
C2235       C  0.77136145  0.68420891  0.96783664    -0.09190
C2236       C  0.76998473  0.65224881  0.96891574    -0.06570
C2237       C  0.75805420  0.63631754  0.99413068    -0.00630
C2238       C  0.74398980  0.65298726  0.01763479    -0.09100
C2239       C  0.72645031  0.63734175  0.04306579     0.61280
H2240       H  0.73855258  0.69719341  0.03674338     0.11970
H2241       H  0.77992031  0.63942414  0.95047244     0.11980
C2242       C  0.78414797  0.69943112  0.93942465     0.61510
F2243       F  0.70813541  0.65764786  0.05856250    -0.23660
F2244       F  0.74639188  0.62429462  0.06368754    -0.20990
F2245       F  0.70781744  0.61509731  0.03107033    -0.20660
F2246       F  0.81251142  0.71142217  0.94526599    -0.20710
F2247       F  0.76460960  0.72206534  0.92969700    -0.21040
F2248       F  0.78735320  0.67915063  0.91567851    -0.23710
C2249       C  0.75725211  0.51715970  0.15568384    -0.06550
C2250       C  0.76024650  0.48965810  0.14005693    -0.00620
C2251       C  0.76168500  0.46213659  0.15748019    -0.09190
C2252       C  0.75909238  0.46366150  0.18945319    -0.06570
C2253       C  0.75891338  0.49128186  0.20516709    -0.00630
C2254       C  0.75747633  0.51872743  0.18763655    -0.09100
C2255       C  0.75582019  0.55054432  0.20056986     0.61280
H2256       H  0.75606596  0.53822858  0.14273243     0.11970
H2257       H  0.75882326  0.44291785  0.20241257     0.11980
C2258       C  0.76826124  0.43128871  0.14338243     0.61510
F2259       F  0.78174288  0.56646813  0.19240073    -0.23660
F2260       F  0.75311923  0.55092275  0.23167390    -0.20990
F2261       F  0.73071218  0.56544762  0.18862579    -0.20660
F2262       F  0.79658056  0.43182571  0.12953700    -0.20710
F2263       F  0.74605907  0.42421097  0.12230980    -0.21040
F2264       F  0.76884582  0.40809011  0.16490435    -0.23710
C2265       C  0.74126397  0.47478297  0.84360188    -0.06550
C2266       C  0.75611746  0.49998517  0.85606503    -0.00620
C2267       C  0.76814160  0.52248332  0.83589847    -0.09190
C2268       C  0.76799177  0.51671564  0.80442475    -0.06570
C2269       C  0.75704597  0.48940434  0.79219213    -0.00630
C2270       C  0.74147401  0.46883852  0.81210765    -0.09100
C2271       C  0.72562555  0.43989578  0.80256774     0.61280
H2272       H  0.73088160  0.45837178  0.85898966     0.11970
H2273       H  0.77805740  0.53312463  0.78895719     0.11980
C2274       C  0.78272327  0.55174923  0.84695706     0.61510
F2275       F  0.73581211  0.41571993  0.82019642    -0.23660
F2276       F  0.73070586  0.43275833  0.77271477    -0.20990
F2277       F  0.69463308  0.44315184  0.80698287    -0.20660
F2278       F  0.80866473  0.54514401  0.86357753    -0.20710
F2279       F  0.76225661  0.56761718  0.86475418    -0.21040
F2280       F  0.79120167  0.57070553  0.82306440    -0.23710
C2281       C  0.27041158  0.51536548  0.68863187    -0.06550
C2282       C  0.25890163  0.48958586  0.70391567    -0.00620
C2283       C  0.24635715  0.46586717  0.68576246    -0.09190
C2284       C  0.24724154  0.46885836  0.65370411    -0.06570
C2285       C  0.25833427  0.49501104  0.63890791    -0.00630
C2286       C  0.26910741  0.51942588  0.65697804    -0.09100
C2287       C  0.28029321  0.54957497  0.64370964     0.61280
H2288       H  0.28052089  0.53310930  0.70197517     0.11970
H2289       H  0.23929278  0.45015848  0.63986567     0.11980
C2290       C  0.23336923  0.43617601  0.69763008     0.61510
F2291       F  0.28780436  0.57027538  0.66608771    -0.23660
F2292       F  0.25759995  0.56274701  0.62619748    -0.20990
F2293       F  0.30609485  0.54493792  0.62626626    -0.20660
F2294       F  0.22728507  0.43647155  0.72819323    -0.20710
F2295       F  0.25366415  0.41293702  0.69164460    -0.21040
F2296       F  0.20623249  0.43001799  0.68293919    -0.23710
C2297       C  0.27020479  0.51812613  0.33902117    -0.06550
C2298       C  0.25470694  0.49624068  0.35650488    -0.00620
C2299       C  0.23697579  0.47418872  0.34137152    -0.09190
C2300       C  0.23920731  0.47200701  0.30937606    -0.06570
C2301       C  0.25808649  0.49155611  0.29211200    -0.00630
C2302       C  0.27104844  0.51697794  0.30708721    -0.09100
C2303       C  0.28607336  0.54326440  0.29037432     0.61280
H2304       H  0.28277929  0.53589305  0.35043725     0.11970
H2305       H  0.22779566  0.45356537  0.29811262     0.11980
C2306       C  0.21575878  0.45316509  0.35881460     0.61510
F2307       F  0.28068798  0.57021885  0.30554066    -0.23660
F2308       F  0.27447063  0.54674212  0.26130011    -0.20990
F2309       F  0.31715799  0.53860365  0.28913689    -0.20660
F2310       F  0.19808661  0.46996764  0.37863390    -0.20710
F2311       F  0.23233309  0.43191822  0.37516355    -0.21040
F2312       F  0.19638337  0.43778312  0.33943961    -0.23710
C2313       C  0.27789953  0.64791009  0.52382665    -0.06550
C2314       C  0.25906557  0.63453494  0.50195432    -0.00620
C2315       C  0.24159485  0.65338837  0.48255314    -0.09190
C2316       C  0.24469268  0.68520548  0.48498486    -0.06570
C2317       C  0.26462803  0.69877728  0.50613441    -0.00630
C2318       C  0.28096966  0.67944984  0.52657950    -0.09100
C2319       C  0.30353876  0.69070004  0.55020287     0.61280
H2320       H  0.29181375  0.63329046  0.53809712     0.11970
H2321       H  0.23276935  0.69947909  0.46894415     0.11980
C2322       C  0.21995877  0.64001268  0.45936342     0.61510
F2323       F  0.30681638  0.66987401  0.57382890    -0.23660
F2324       F  0.29414785  0.71749777  0.56315078    -0.20990
F2325       F  0.33165667  0.69469934  0.53666614    -0.20660
F2326       F  0.20065418  0.61953808  0.47363827    -0.20710
F2327       F  0.23624581  0.62523558  0.43696642    -0.21040
F2328       F  0.20229399  0.66220297  0.44546648    -0.23710
C2329       C  0.26682071  0.30158305  0.47561778    -0.06550
C2330       C  0.25442035  0.28844693  0.50207948    -0.00620
C2331       C  0.24280910  0.30795037  0.52505458    -0.09190
C2332       C  0.24193147  0.33949152  0.51934877    -0.06570
C2333       C  0.25642314  0.35268656  0.49395269    -0.00630
C2334       C  0.26972266  0.33321519  0.47177875    -0.09100
C2335       C  0.28956975  0.34499386  0.44574900     0.61280
H2336       H  0.27733488  0.28655140  0.45931474     0.11970
H2337       H  0.23271387  0.35431246  0.53669732     0.11980
C2338       C  0.23481216  0.29771487  0.55719914     0.61510
F2339       F  0.30217650  0.32165993  0.42890111    -0.23660
F2340       F  0.31344586  0.36184590  0.45732609    -0.20990
F2341       F  0.27242674  0.36270743  0.42606250    -0.20660
F2342       F  0.24468440  0.26861710  0.56386278    -0.20710
F2343       F  0.20365451  0.29943584  0.56117767    -0.21040
F2344       F  0.24857386  0.31678314  0.57799312    -0.23710
C2345       C  0.52488271  0.65232867  0.75465648    -0.06550
C2346       C  0.50054293  0.63810055  0.73981853    -0.00620
C2347       C  0.47820334  0.65660365  0.72522086    -0.09190
C2348       C  0.48090408  0.68833419  0.72702028    -0.06570
C2349       C  0.50619883  0.70276367  0.74000993    -0.00630
C2350       C  0.52918364  0.68412108  0.75356235    -0.09100
C2351       C  0.55943018  0.69563500  0.76527014     0.61280
H2352       H  0.54209959  0.63813178  0.76530450     0.11970
H2353       H  0.46390162  0.70233793  0.71614812     0.11980
C2354       C  0.45277342  0.64364084  0.70561555     0.61510
F2355       F  0.58265888  0.67637859  0.75631849    -0.23660
F2356       F  0.55877367  0.69643351  0.79675028    -0.20990
F2357       F  0.56641570  0.72396089  0.75399693    -0.20660
F2358       F  0.43307395  0.62664503  0.72346292    -0.20710
F2359       F  0.46503972  0.62574353  0.68289706    -0.21040
F2360       F  0.43578245  0.66616572  0.69139390    -0.23710
C2361       C  0.65998270  0.46924848  0.72746968    -0.06550
C2362       C  0.64626645  0.49296363  0.74359971    -0.00620
C2363       C  0.66502309  0.51353481  0.75959681    -0.09190
C2364       C  0.69698237  0.50946880  0.75869462    -0.06570
C2365       C  0.71078329  0.48630889  0.74135474    -0.00630
C2366       C  0.69155196  0.46513707  0.72628324    -0.09100
C2367       C  0.70259037  0.43819366  0.70775427     0.61280
H2368       H  0.64571410  0.45388611  0.71463054     0.11970
H2369       H  0.71142086  0.52548328  0.77031594     0.11980
C2370       C  0.65148642  0.53998648  0.77689184     0.61510
F2371       F  0.68338275  0.41357746  0.71211405    -0.23660
F2372       F  0.73121143  0.42853894  0.71595056    -0.20990
F2373       F  0.70248951  0.44596917  0.67716588    -0.20660
F2374       F  0.62943442  0.52952828  0.79688730    -0.20710
F2375       F  0.63854566  0.56042250  0.75660400    -0.21040
F2376       F  0.67329417  0.55530116  0.79354681    -0.23710
C2377       C  0.34838533  0.46778384  0.74708203    -0.06550
C2378       C  0.36206436  0.49660430  0.74622004    -0.00620
C2379       C  0.34298946  0.52271521  0.74848518    -0.09190
C2380       C  0.31115080  0.51852606  0.75028384    -0.06570
C2381       C  0.29762099  0.48979710  0.74677201    -0.00630
C2382       C  0.31678661  0.46376769  0.74696406    -0.09100
C2383       C  0.30597026  0.43107812  0.74743252     0.61280
H2384       H  0.36256604  0.44763159  0.74646133     0.11970
H2385       H  0.29625825  0.53809209  0.75153437     0.11980
C2386       C  0.35535305  0.55493384  0.74689821     0.61510
F2387       F  0.31306379  0.41756456  0.72000132    -0.23660
F2388       F  0.27534487  0.42837915  0.75259346    -0.20990
F2389       F  0.32057380  0.41537254  0.77066022    -0.20660
F2390       F  0.36684362  0.56070847  0.71806019    -0.20710
F2391       F  0.37797858  0.55867870  0.76841046    -0.21040
F2392       F  0.33299377  0.57637908  0.75247458    -0.23710
C2393       C  0.53477415  0.34528141  0.75253083    -0.06550
C2394       C  0.50681270  0.35953551  0.75862014    -0.00620
C2395       C  0.48145056  0.34105651  0.76621397    -0.09190
C2396       C  0.48396046  0.30931778  0.76271826    -0.06570
C2397       C  0.51047464  0.29565199  0.75107703    -0.00630
C2398       C  0.53704089  0.31390263  0.74753018    -0.09100
C2399       C  0.56657125  0.30318282  0.73325793     0.61280
H2400       H  0.55454936  0.35918312  0.74764651     0.11970
H2401       H  0.46378253  0.29548557  0.76533337     0.11980
C2402       C  0.45093349  0.35434674  0.77515299     0.61510
F2403       F  0.56643641  0.30978933  0.70240750    -0.23660
F2404       F  0.57106041  0.27266697  0.73728321    -0.20990
F2405       F  0.59112991  0.31780580  0.74638145    -0.20660
F2406       F  0.43534343  0.36357719  0.74932559    -0.20710
F2407       F  0.45498751  0.37885553  0.79426544    -0.21040
F2408       F  0.43327686  0.33308494  0.79047038    -0.23710
C2409       C  0.76161306  0.64411581  0.52804069    -0.06550
C2410       C  0.75424536  0.63143004  0.49969670    -0.00620
C2411       C  0.75084080  0.65139150  0.47422315    -0.09190
C2412       C  0.75051766  0.68296122  0.47931679    -0.06570
C2413       C  0.75510751  0.69563950  0.50826891    -0.00630
C2414       C  0.76355442  0.67571690  0.53253759    -0.09100
C2415       C  0.77507869  0.68561358  0.56337634     0.61280
H2416       H  0.76585310  0.62905023  0.54725859     0.11970
H2417       H  0.74592246  0.69822718  0.46047302     0.11980
C2418       C  0.74649744  0.64015460  0.44185743     0.61510
F2419       F  0.75308641  0.67999802  0.58525140    -0.23660
F2420       F  0.78306078  0.71574099  0.56392502    -0.20990
F2421       F  0.80091037  0.66913903  0.57082363    -0.20660
F2422       F  0.71827757  0.62658486  0.43900327    -0.20710
F2423       F  0.76921178  0.61961638  0.43471275    -0.21040
F2424       F  0.74803410  0.66363508  0.42068872    -0.23710
C2425       C  0.77022377  0.46864066  0.68795175    -0.06550
C2426       C  0.75486813  0.49186409  0.70359488    -0.00620
C2427       C  0.74553267  0.51790845  0.68687455    -0.09190
C2428       C  0.74581426  0.51693008  0.65497065    -0.06570
C2429       C  0.75649648  0.49145475  0.63905158    -0.00630
C2430       C  0.77059743  0.46755607  0.65578727    -0.09100
C2431       C  0.78470800  0.44034760  0.64016294     0.61280
H2432       H  0.77960587  0.44992474  0.70096357     0.11970
H2433       H  0.73633542  0.53605774  0.64248162     0.11980
C2434       C  0.73500092  0.54718104  0.70153716     0.61510
F2435       F  0.80251177  0.42342428  0.66004474    -0.23660
F2436       F  0.80303072  0.44995999  0.61631657    -0.20990
F2437       F  0.76205272  0.42161833  0.62917713    -0.20660
F2438       F  0.74390591  0.54914408  0.73161114    -0.20710
F2439       F  0.70365997  0.54924087  0.69971864    -0.21040
F2440       F  0.74765647  0.57179684  0.68629798    -0.23710
C2441       C  0.76057680  0.29654278  0.51497124    -0.06550
C2442       C  0.74705315  0.28317691  0.48919212    -0.00620
C2443       C  0.73792590  0.30238679  0.46472365    -0.09190
C2444       C  0.74026286  0.33402530  0.46799825    -0.06570
C2445       C  0.75137535  0.34755015  0.49468698    -0.00630
C2446       C  0.76336644  0.32843469  0.51793544    -0.09100
C2447       C  0.77939952  0.34141668  0.54547919     0.61280
H2448       H  0.76774472  0.28181271  0.53349069     0.11970
H2449       H  0.73176400  0.34853819  0.44990688     0.11980
C2450       C  0.72541931  0.28993207  0.43511868     0.61510
F2451       F  0.79487103  0.31911245  0.56165760    -0.23660
F2452       F  0.75847761  0.35461359  0.56481861    -0.20990
F2453       F  0.80038591  0.36302227  0.53615207    -0.20660
F2454       F  0.69723436  0.27704147  0.44004667    -0.20710
F2455       F  0.74523035  0.26855481  0.42360189    -0.21040
F2456       F  0.72190926  0.31239603  0.41310992    -0.23710
C2457       C  0.73279966  0.51349015  0.34399129    -0.06550
C2458       C  0.75289232  0.49397796  0.35924480    -0.00620
C2459       C  0.77320347  0.47612642  0.34213912    -0.09190
C2460       C  0.77139738  0.47726340  0.31003183    -0.06570
C2461       C  0.74962768  0.49524611  0.29439309    -0.00630
C2462       C  0.73114592  0.51514770  0.31216079    -0.09100
C2463       C  0.70824647  0.53792388  0.29968988     0.61280
H2464       H  0.71717703  0.52716527  0.35726036     0.11970
H2465       H  0.78515033  0.46168095  0.29738045     0.11980
C2466       C  0.79611816  0.45548685  0.35775167     0.61510
F2467       F  0.67913898  0.52658383  0.30355427    -0.23660
F2468       F  0.71277263  0.54484546  0.26954888    -0.20990
F2469       F  0.71057496  0.56499273  0.31540111    -0.20660
F2470       F  0.78112468  0.43234424  0.37306372    -0.20710
F2471       F  0.81304798  0.47206628  0.37832054    -0.21040
F2472       F  0.81600116  0.44248883  0.33711884    -0.23710
C2473       C  0.66119814  0.73583668  0.52728738    -0.06550
C2474       C  0.64911994  0.73724427  0.49764016    -0.00620
C2475       C  0.66968323  0.74063530  0.47278488    -0.09190
C2476       C  0.70131998  0.74001777  0.47869192    -0.06570
C2477       C  0.71312729  0.73552593  0.50822110    -0.00630
C2478       C  0.69252354  0.73512655  0.53312369    -0.09100
C2479       C  0.70156220  0.73399102  0.56640307     0.61280
H2480       H  0.64593057  0.73437190  0.54665352     0.11970
H2481       H  0.71719895  0.74174949  0.45993796     0.11980
C2482       C  0.65882773  0.74403160  0.44011578     0.61510
F2483       F  0.68652373  0.75675470  0.58197898    -0.23660
F2484       F  0.73211337  0.73834373  0.57081475    -0.20990
F2485       F  0.69329797  0.70618915  0.57878001    -0.20660
F2486       F  0.63707878  0.76670696  0.43820338    -0.20710
F2487       F  0.64666139  0.71685495  0.43026887    -0.21040
F2488       F  0.68237648  0.75178860  0.42055403    -0.23710
C2489       C  0.48801715  0.75449879  0.65010720    -0.06550
C2490       C  0.51271646  0.74050536  0.63554850    -0.00620
C2491       C  0.53706208  0.72900339  0.65375646    -0.09190
C2492       C  0.53561345  0.73255737  0.68548997    -0.06570
C2493       C  0.50995197  0.74431865  0.70032556    -0.00630
C2494       C  0.48552816  0.75583492  0.68217792    -0.09100
C2495       C  0.45656759  0.76923278  0.69537620     0.61280
H2496       H  0.46981547  0.76339894  0.63599084     0.11970
H2497       H  0.55381702  0.72363818  0.69946285     0.11980
C2498       C  0.56340347  0.71060996  0.64075006     0.61510
F2499       F  0.43287082  0.76810801  0.67463648    -0.23660
F2500       F  0.46135549  0.79933044  0.70255378    -0.20990
F2501       F  0.44725382  0.75348474  0.72093876    -0.20660
F2502       F  0.58076450  0.72864018  0.62152124    -0.20710
F2503       F  0.55223808  0.68581265  0.62509904    -0.21040
F2504       F  0.58255101  0.69943267  0.66326194    -0.23710
C2505       C  0.34917398  0.73289464  0.46983929    -0.06550
C2506       C  0.36659232  0.74444466  0.49395921    -0.00620
C2507       C  0.35134048  0.75928662  0.51815214    -0.09190
C2508       C  0.31925355  0.75836984  0.51918707    -0.06570
C2509       C  0.30209128  0.74270105  0.49728864    -0.00630
C2510       C  0.31722485  0.73254409  0.47068602    -0.09100
C2511       C  0.30068266  0.72029828  0.44311481     0.61280
H2512       H  0.36056075  0.72258470  0.45060065     0.11970
H2513       H  0.30782234  0.76731864  0.53882540     0.11980
C2514       C  0.36852505  0.77432492  0.54391032     0.61510
F2515       F  0.31512065  0.72986546  0.41667102    -0.23660
F2516       F  0.27106455  0.73067534  0.44163639    -0.20990
F2517       F  0.30086006  0.68888010  0.44409859    -0.20660
F2518       F  0.39239007  0.79139061  0.53235669    -0.20710
F2519       F  0.37967739  0.75239117  0.56369572    -0.21040
F2520       F  0.34989148  0.79360183  0.56032158    -0.23710
C2521       C  0.52541561  0.75531944  0.33904873    -0.06550
C2522       C  0.50276432  0.73737660  0.35255690    -0.00620
C2523       C  0.48302166  0.72033917  0.33353591    -0.09190
C2524       C  0.48822141  0.72066602  0.30195206    -0.06570
C2525       C  0.51337109  0.73538385  0.28863244    -0.00630
C2526       C  0.53180631  0.75418071  0.30760837    -0.09100
C2527       C  0.55961032  0.77180222  0.29736585     0.61280
H2528       H  0.53993484  0.76868725  0.35375361     0.11970
H2529       H  0.47343135  0.70767163  0.28728682     0.11980
C2530       C  0.45777872  0.70010833  0.34611784     0.61510
F2531       F  0.58348923  0.76654146  0.31728897    -0.23660
F2532       F  0.55296302  0.80253423  0.29722953    -0.20990
F2533       F  0.56941034  0.76360533  0.26903548    -0.20660
F2534       F  0.43672753  0.71754858  0.36158555    -0.20710
F2535       F  0.46996359  0.67834740  0.36550928    -0.21040
F2536       F  0.44237007  0.68492539  0.32332513    -0.23710
C2537       C  0.66075929  0.46180421  0.26934857    -0.06550
C2538       C  0.64539237  0.48185463  0.24983713    -0.00620
C2539       C  0.66233212  0.50022473  0.22957340    -0.09190
C2540       C  0.69436685  0.49976430  0.23156744    -0.06570
C2541       C  0.71008121  0.48173958  0.25329374    -0.00630
C2542       C  0.69254806  0.46069314  0.27103009    -0.09100
C2543       C  0.70520281  0.43730195  0.29328562     0.61280
H2544       H  0.64766134  0.44743820  0.28469614     0.11970
H2545       H  0.70674798  0.51614497  0.21828528     0.11980
C2546       C  0.64665396  0.52080039  0.20656700     0.61510
F2547       F  0.70087283  0.44727831  0.32277484    -0.23660
F2548       F  0.73545490  0.43138097  0.28881578    -0.20990
F2549       F  0.69003434  0.40995924  0.28983731    -0.20660
F2550       F  0.63198187  0.54419485  0.22142276    -0.20710
F2551       F  0.62558957  0.50423972  0.19020869    -0.21040
F2552       F  0.66713886  0.53343975  0.18609534    -0.23710
C2553       C  0.35109980  0.46418654  0.26881712    -0.06550
C2554       C  0.36518908  0.48645652  0.25064955    -0.00620
C2555       C  0.34682422  0.50570192  0.23234595    -0.09190
C2556       C  0.31479900  0.50228907  0.23362856    -0.06570
C2557       C  0.30067363  0.48114999  0.25352863    -0.00630
C2558       C  0.31951850  0.46079173  0.27037567    -0.09100
C2559       C  0.30827353  0.43498736  0.29069417     0.61280
H2560       H  0.36500310  0.44938624  0.28295851     0.11970
H2561       H  0.30061474  0.51770459  0.22065821     0.11980
C2562       C  0.36084346  0.53018984  0.21231281     0.61510
F2563       F  0.32420606  0.40870426  0.28402279    -0.23660
F2564       F  0.27796756  0.42847734  0.28689059    -0.20990
F2565       F  0.31334704  0.44229026  0.32085508    -0.20660
F2566       F  0.38282576  0.51756590  0.19371984    -0.20710
F2567       F  0.37401720  0.55220319  0.23030848    -0.21040
F2568       F  0.33934109  0.54419202  0.19391113    -0.23710
C2569       C  0.47520990  0.33388827  0.25723687    -0.06550
C2570       C  0.50271102  0.34912706  0.25157266    -0.00620
C2571       C  0.52819587  0.33190994  0.24210045    -0.09190
C2572       C  0.52601685  0.30001287  0.24245334    -0.06570
C2573       C  0.49985072  0.28440228  0.25253195    -0.00630
C2574       C  0.47292657  0.30195673  0.25698793    -0.09100
C2575       C  0.44128843  0.28819410  0.25778639     0.61280
H2576       H  0.45526754  0.34729712  0.26244151     0.11970
H2577       H  0.54578797  0.28731287  0.23625144     0.11980
C2578       C  0.55815148  0.34656281  0.23280259     0.61510
F2579       F  0.41878301  0.30993911  0.26134840    -0.23660
F2580       F  0.43811211  0.26768991  0.28127548    -0.20990
F2581       F  0.43601812  0.27412227  0.23045460    -0.20660
F2582       F  0.57325991  0.35677341  0.25837394    -0.20710
F2583       F  0.55286087  0.37063311  0.21302375    -0.21040
F2584       F  0.57710375  0.32624074  0.21808601    -0.23710
C2585       C  0.54080283  0.64296889  0.25907971    -0.06550
C2586       C  0.51531859  0.62920947  0.24565847    -0.00620
C2587       C  0.49342311  0.64788419  0.23115201    -0.09190
C2588       C  0.49586612  0.67970190  0.23402578    -0.06570
C2589       C  0.52039780  0.69354732  0.24934560    -0.00630
C2590       C  0.54394197  0.67464773  0.26103853    -0.09100
C2591       C  0.57231376  0.68734580  0.27599722     0.61280
H2592       H  0.55783167  0.62863278  0.26969390     0.11970
H2593       H  0.47773567  0.69383422  0.22533531     0.11980
C2594       C  0.46800244  0.63446416  0.21221273     0.61510
F2595       F  0.59401254  0.66508462  0.28128358    -0.23660
F2596       F  0.56508528  0.69987180  0.30378203    -0.20990
F2597       F  0.58533342  0.70901327  0.25717978    -0.20660
F2598       F  0.44652672  0.62097531  0.23092565    -0.20710
F2599       F  0.47982389  0.61297559  0.19261529    -0.21040
F2600       F  0.45359009  0.65650933  0.19473325    -0.23710
C2601       C  0.51316349  0.27484925  0.65542452    -0.06550
C2602       C  0.50169836  0.24805411  0.64308531    -0.00620
C2603       C  0.48604887  0.22740732  0.66251443    -0.09190
C2604       C  0.48660721  0.23261635  0.69446908    -0.06570
C2605       C  0.49906539  0.25968480  0.70636066    -0.00630
C2606       C  0.50489330  0.28332903  0.68474541    -0.09100
C2607       C  0.48836719  0.31383999  0.68581577     0.61280
H2608       H  0.52160392  0.29242579  0.64008198     0.11970
H2609       H  0.47685429  0.21603941  0.70988228     0.11980
C2610       C  0.46960023  0.20023940  0.64957595     0.61510
F2611       F  0.47678551  0.32176484  0.65742172    -0.23660
F2612       F  0.50799023  0.33663803  0.69428439    -0.20990
F2613       F  0.46367756  0.31254869  0.70521896    -0.20660
F2614       F  0.48970090  0.18274452  0.63296252    -0.20710
F2615       F  0.44638625  0.21010407  0.63066826    -0.21040
F2616       F  0.45700310  0.18222417  0.67231691    -0.23710
C2617       C  0.48001952  0.23264824  0.31039268    -0.06550
C2618       C  0.50534973  0.24510502  0.29509668    -0.00620
C2619       C  0.52974958  0.25673827  0.31290041    -0.09190
C2620       C  0.52671078  0.25757661  0.34466053    -0.06570
C2621       C  0.50074678  0.24683971  0.35993902    -0.00630
C2622       C  0.47670723  0.23424864  0.34246352    -0.09100
C2623       C  0.44743803  0.22322041  0.35720150     0.61280
H2624       H  0.46232315  0.22236844  0.29682490     0.11970
H2625       H  0.54510609  0.26739378  0.35772386     0.11980
C2626       C  0.56025506  0.26719060  0.30020359     0.61510
F2627       F  0.42878826  0.20858202  0.33658497    -0.23660
F2628       F  0.43146861  0.24773456  0.36858622    -0.20990
F2629       F  0.45395900  0.20303035  0.38062143    -0.20660
F2630       F  0.56137332  0.29858269  0.29987460    -0.20710
F2631       F  0.56587579  0.25633541  0.27138635    -0.21040
F2632       F  0.58359344  0.25642147  0.31854630    -0.23710
C2633       C  0.34315115  0.22681944  0.50185117    -0.06550
C2634       C  0.35879949  0.25328487  0.50994318    -0.00620
C2635       C  0.34265034  0.27688819  0.52483124    -0.09190
C2636       C  0.31107472  0.27418937  0.52795586    -0.06570
C2637       C  0.29478079  0.24909942  0.51663494    -0.00630
C2638       C  0.31258116  0.22263658  0.51094978    -0.09100
C2639       C  0.30828224  0.19424904  0.53046459     0.61280
H2640       H  0.35634406  0.20729266  0.49468912     0.11970
H2641       H  0.29879460  0.29275834  0.53804433     0.11980
C2642       C  0.35802102  0.30573736  0.53594175     0.61510
F2643       F  0.33435901  0.18824523  0.54725802    -0.23660
F2644       F  0.30300028  0.16933389  0.51241313    -0.20990
F2645       F  0.28505020  0.19790402  0.55131264    -0.20660
F2646       F  0.37522185  0.31821547  0.51267591    -0.20710
F2647       F  0.37639117  0.29922745  0.56070006    -0.21040
F2648       F  0.33720251  0.32752529  0.54502245    -0.23710
C2649       C  0.65544934  0.22449838  0.48234519    -0.06550
C2650       C  0.64248075  0.24265868  0.50500395    -0.00620
C2651       C  0.66205761  0.25906385  0.52474630    -0.09190
C2652       C  0.69363299  0.25698805  0.52031298    -0.06570
C2653       C  0.70663316  0.24211523  0.49522335    -0.00630
C2654       C  0.68699543  0.22460738  0.47621593    -0.09100
C2655       C  0.69679011  0.20729061  0.44817086     0.61280
H2656       H  0.64034456  0.21181242  0.46762804     0.11970
H2657       H  0.70863866  0.26896755  0.53558808     0.11980
C2658       C  0.65023316  0.28073877  0.54894545     0.61510
F2659       F  0.67717918  0.21354326  0.42424976    -0.23660
F2660       F  0.69583338  0.17644379  0.45442392    -0.20990
F2661       F  0.72543528  0.21494715  0.43851892    -0.20660
F2662       F  0.63409665  0.26475707  0.57087780    -0.20710
F2663       F  0.63174854  0.30253289  0.53556105    -0.21040
F2664       F  0.67353041  0.29594271  0.56360121    -0.23710
loop_ 
_geom_bond_atom_site_label_1 
_geom_bond_atom_site_label_2 
_geom_bond_distance 
_geom_bond_site_symmetry_2 
_ccdc_geom_bond_type 
N1            N2   1.321       .  A
N1            N7   1.315       .  A
N1          Mn30   2.195       .  S
N2            C9   1.351       .  A
N3            N5   1.320       .  A
N3            N4   1.319       .  A
N3          Mn19   2.200       .  S
N4           C10   1.347       .  A
N5            N6   1.324       .  A
N5          Mn30   2.221       .  S
N6           C10   1.355       .  A
N7            N8   1.321       .  A
N7          Mn19   2.202       .  S
N8            C9   1.352       .  A
C9          C144   1.464       .  S
C10        C2650   1.491       .  S
N11          N17   1.317       .  A
N11          N12   1.322       .  A
N11         Mn41   2.210       .  S
N12          C20   1.354       .  A
N13          N14   1.322       .  A
N13          N15   1.313       .  A
N13         Mn19   2.199       .  S
N14          C21   1.353       .  A
N15          N16   1.319       .  A
N15         Mn41   2.190       .  S
N16          C21   1.351       .  A
N17          N18   1.320       .  A
N17         Mn19   2.213       .  S
N18          C20   1.355       .  A
Mn19        Cl43   2.538       .  S
C20        C2602   1.480       .  S
C21         C201   1.465       .  S
N22          N23   1.320       .  A
N22          N28   1.322       .  A
N22         Mn30   2.222       .  S
N23          C31   1.354       .  A
N24          N26   1.314       .  A
N24          N25   1.319       .  A
N24         Mn42   2.183       .  S
N25          C32   1.349       .  A
N26          N27   1.320       .  A
N26         Mn30   2.196       .  S
N27          C32   1.352       .  A
N28          N29   1.323       .  A
N28         Mn42   2.207       .  S
N29          C31   1.351       .  A
Mn30        Cl43   2.534       .  S
C31        C2621   1.497       .  S
C32          C66   1.458       .  S
N33          N34   1.320       .  A
N33          N39   1.313       .  A
N33         Mn41   2.205       .  S
N34          C44   1.354       .  A
N35          N36   1.326       .  A
N35          N37   1.320       .  A
N35         Mn42   2.220       .  S
N36          C45   1.355       .  A
N37          N38   1.316       .  A
N37         Mn41   2.198       .  S
N38          C45   1.345       .  A
N39          N40   1.317       .  A
N39         Mn42   2.167       .  S
N40          C44   1.346       .  A
Mn41        Cl43   2.530       .  S
Mn42        Cl43   2.548       .  S
C44         C234   1.455       .  S
C45        C2634   1.481       .  S
N46          N47   1.320       .  A
N46          N52   1.313       .  A
N46         Mn75   2.189       .  S
N47          C54   1.351       .  A
N48          N50   1.317       .  A
N48          N49   1.317       .  A
N48         Mn64   2.192       .  S
N49          C55   1.351       .  A
N50          N51   1.323       .  A
N50         Mn75   2.215       .  S
N51          C55   1.354       .  A
N52          N53   1.319       .  A
N52         Mn64   2.191       .  S
N53          C54   1.350       .  A
C54         C156   1.459       .  S
C55        C2538   1.481       .  S
N56          N62   1.316       .  A
N56          N57   1.319       .  A
N56         Mn86   2.198       .  S
N57          C65   1.353       .  A
N58          N59   1.318       .  A
N58          N60   1.313       .  A
N58         Mn64   2.178       .  S
N59          C66   1.349       .  A
N60          N61   1.320       .  A
N60         Mn86   2.200       .  S
N61          C66   1.353       .  A
N62          N63   1.320       .  A
N62         Mn64   2.198       .  S
N63          C65   1.351       .  A
Mn64        Cl88   2.539       .  S
C65        C2570   1.492       .  S
N67          N68   1.317       .  A
N67          N73   1.320       .  A
N67         Mn75   2.197       .  S
N68          C76   1.349       .  A
N69          N71   1.315       .  A
N69          N70   1.319       .  A
N69         Mn87   2.185       .  S
N70          C77   1.349       .  A
N71          N72   1.320       .  A
N71         Mn75   2.205       .  S
N72          C77   1.353       .  A
N73          N74   1.325       .  A
N73         Mn87   2.226       .  S
N74          C76   1.356       .  A
Mn75        Cl88   2.529       .  S
C76        C2586   1.491       .  S
C77          C99   1.460       .  S
N78          N79   1.318       .  A
N78          N84   1.314       .  A
N78         Mn86   2.188       .  S
N79          C89   1.349       .  A
N80          N81   1.326       .  A
N80          N82   1.320       .  A
N80         Mn87   2.221       .  S
N81          C90   1.356       .  A
N82          N83   1.316       .  A
N82         Mn86   2.204       .  S
N83          C90   1.350       .  A
N84          N85   1.321       .  A
N84         Mn87   2.195       .  S
N85          C89   1.352       .  A
Mn86        Cl88   2.521       .  S
Mn87        Cl88   2.557       .  S
C89         C257   1.459       .  S
C90        C2554   1.490       .  S
N91          N92   1.319       .  A
N91          N97   1.314       .  A
N91        Mn120   2.182       .  S
N92          C99   1.349       .  A
N93          N95   1.321       .  A
N93          N94   1.318       .  A
N93        Mn109   2.198       .  S
N94         C100   1.347       .  A
N95          N96   1.323       .  A
N95        Mn120   2.224       .  S
N96         C100   1.355       .  A
N97          N98   1.321       .  A
N97        Mn109   2.205       .  S
N98          C99   1.353       .  A
C100       C2522   1.487       .  S
N101        N107   1.319       .  A
N101        N102   1.322       .  A
N101       Mn131   2.210       .  S
N102        C110   1.353       .  A
N103        N104   1.319       .  A
N103        N105   1.314       .  A
N103       Mn109   2.189       .  S
N104        C111   1.351       .  A
N105        N106   1.321       .  A
N105       Mn131   2.196       .  S
N106        C111   1.351       .  A
N107        N108   1.321       .  A
N107       Mn109   2.213       .  S
N108        C110   1.353       .  A
Mn109      Cl133   2.522       .  S
C110       C2506   1.493       .  S
C111        C269   1.460       .  S
N112        N113   1.325       .  A
N112        N118   1.319       .  A
N112       Mn120   2.217       .  S
N113        C121   1.355       .  A
N114        N116   1.313       .  A
N114        N115   1.319       .  A
N114       Mn132   2.186       .  S
N115        C122   1.350       .  A
N116        N117   1.320       .  A
N116       Mn120   2.198       .  S
N117        C122   1.353       .  A
N118        N119   1.316       .  A
N118       Mn132   2.198       .  S
N119        C121   1.351       .  A
Mn120      Cl133   2.558       .  S
C121       C2474   1.501       .  S
C122        C179   1.461       .  S
N123        N124   1.317       .  A
N123        N129   1.313       .  A
N123       Mn131   2.175       .  S
N124        C134   1.349       .  A
N125        N126   1.317       .  A
N125        N127   1.319       .  A
N125       Mn132   2.195       .  S
N126        C135   1.346       .  A
N127        N128   1.325       .  A
N127       Mn131   2.221       .  S
N128        C135   1.357       .  A
N129        N130   1.319       .  A
N129       Mn132   2.189       .  S
N130        C134   1.351       .  A
Mn131      Cl133   2.557       .  S
Mn132      Cl133   2.513       .  S
C134        C212   1.452       .  S
C135       C2490   1.495       .  S
N136        N137   1.320       .  A
N136        N142   1.315       .  A
N136       Mn165   2.190       .  S
N137        C144   1.350       .  A
N138        N140   1.320       .  A
N138        N139   1.318       .  A
N138       Mn154   2.204       .  S
N139        C145   1.351       .  A
N140        N141   1.326       .  A
N140       Mn165   2.230       .  S
N141        C145   1.357       .  A
N142        N143   1.321       .  A
N142       Mn154   2.208       .  S
N143        C144   1.353       .  A
C145       C2445   1.499       .  S
N146        N152   1.319       .  A
N146        N147   1.317       .  A
N146       Mn176   2.196       .  S
N147        C155   1.350       .  A
N148        N149   1.319       .  A
N148        N150   1.313       .  A
N148       Mn154   2.186       .  S
N149        C156   1.351       .  A
N150        N151   1.320       .  A
N150       Mn176   2.194       .  S
N151        C156   1.351       .  A
N152        N153   1.323       .  A
N152       Mn154   2.219       .  S
N153        C155   1.354       .  A
Mn154      Cl178   2.535       .  S
C155       C2458   1.482       .  S
N157        N158   1.323       .  A
N157        N163   1.321       .  A
N157       Mn165   2.218       .  S
N158        C166   1.354       .  A
N159        N161   1.314       .  A
N159        N160   1.318       .  A
N159       Mn177   2.182       .  S
N160        C167   1.348       .  A
N161        N162   1.321       .  A
N161       Mn165   2.201       .  S
N162        C167   1.353       .  A
N163        N164   1.319       .  A
N163       Mn177   2.210       .  S
N164        C166   1.352       .  A
Mn165      Cl178   2.554       .  S
C166       C2429   1.492       .  S
C167        C224   1.458       .  S
N168        N169   1.318       .  A
N168        N174   1.313       .  A
N168       Mn176   2.180       .  S
N169        C179   1.349       .  A
N170        N171   1.321       .  A
N170        N172   1.318       .  A
N170       Mn177   2.205       .  S
N171        C180   1.354       .  A
N172        N173   1.321       .  A
N172       Mn176   2.208       .  S
N173        C180   1.351       .  A
N174        N175   1.321       .  A
N174       Mn177   2.204       .  S
N175        C179   1.354       .  A
Mn176      Cl178   2.538       .  S
Mn177      Cl178   2.534       .  S
C180       C2410   1.500       .  S
N181        N182   1.319       .  A
N181        N187   1.314       .  A
N181       Mn210   2.191       .  S
N182        C189   1.350       .  A
N183        N185   1.318       .  A
N183        N184   1.318       .  A
N183       Mn199   2.207       .  S
N184        C190   1.354       .  A
N185        N186   1.322       .  A
N185       Mn210   2.201       .  S
N186        C190   1.351       .  A
N187        N188   1.321       .  A
N187       Mn199   2.202       .  S
N188        C189   1.353       .  A
C189        C246   1.463       .  S
C190       C2378   1.499       .  S
N191        N197   1.317       .  A
N191        N192   1.316       .  A
N191       Mn221   2.198       .  S
N192        C200   1.352       .  A
N193        N194   1.319       .  A
N193        N195   1.314       .  A
N193       Mn199   2.189       .  S
N194        C201   1.351       .  A
N195        N196   1.322       .  A
N195       Mn221   2.205       .  S
N196        C201   1.353       .  A
N197        N198   1.323       .  A
N197       Mn199   2.216       .  S
N198        C200   1.356       .  A
Mn199      Cl223   2.550       .  S
C200       C2394   1.495       .  S
N202        N203   1.318       .  A
N202        N208   1.321       .  A
N202       Mn210   2.205       .  S
N203        C211   1.348       .  A
N204        N206   1.313       .  A
N204        N205   1.318       .  A
N204       Mn222   2.179       .  S
N205        C212   1.349       .  A
N206        N207   1.318       .  A
N206       Mn210   2.187       .  S
N207        C212   1.350       .  A
N208        N209   1.324       .  A
N208       Mn222   2.222       .  S
N209        C211   1.356       .  A
Mn210      Cl223   2.525       .  S
C211       C2346   1.493       .  S
N213        N214   1.320       .  A
N213        N219   1.314       .  A
N213       Mn221   2.189       .  S
N214        C224   1.350       .  A
N215        N216   1.325       .  A
N215        N217   1.320       .  A
N215       Mn222   2.213       .  S
N216        C225   1.354       .  A
N217        N218   1.318       .  A
N217       Mn221   2.208       .  S
N218        C225   1.351       .  A
N219        N220   1.319       .  A
N219       Mn222   2.194       .  S
N220        C224   1.351       .  A
Mn221      Cl223   2.521       .  S
Mn222      Cl223   2.555       .  S
C225       C2362   1.492       .  S
N226        N227   1.320       .  A
N226        N232   1.314       .  A
N226       Mn255   2.206       .  S
N227        C234   1.354       .  A
N228        N230   1.320       .  A
N228        N229   1.323       .  A
N228       Mn244   2.218       .  S
N229        C235   1.355       .  A
N230        N231   1.319       .  A
N230       Mn255   2.204       .  S
N231        C235   1.348       .  A
N232        N233   1.317       .  A
N232       Mn244   2.168       .  S
N233        C234   1.346       .  A
C235       C2333   1.493       .  S
N236        N242   1.319       .  A
N236        N237   1.316       .  A
N236       Mn266   2.201       .  S
N237        C245   1.346       .  A
N238        N239   1.321       .  A
N238        N240   1.313       .  A
N238       Mn244   2.194       .  S
N239        C246   1.352       .  A
N240        N241   1.320       .  A
N240       Mn266   2.194       .  S
N241        C246   1.352       .  A
N242        N243   1.323       .  A
N242       Mn244   2.203       .  S
N243        C245   1.354       .  A
Mn244      Cl268   2.553       .  S
C245       C2285   1.493       .  S
N247        N248   1.322       .  A
N247        N253   1.320       .  A
N247       Mn255   2.217       .  S
N248        C256   1.353       .  A
N249        N251   1.314       .  A
N249        N250   1.321       .  A
N249       Mn267   2.194       .  S
N250        C257   1.352       .  A
N251        N252   1.318       .  A
N251       Mn255   2.188       .  S
N252        C257   1.350       .  A
N253        N254   1.321       .  A
N253       Mn267   2.207       .  S
N254        C256   1.353       .  A
Mn255      Cl268   2.526       .  S
C256       C2298   1.488       .  S
N258        N259   1.321       .  A
N258        N264   1.314       .  A
N258       Mn266   2.201       .  S
N259        C269   1.353       .  A
N260        N261   1.324       .  A
N260        N262   1.318       .  A
N260       Mn267   2.214       .  S
N261        C270   1.355       .  A
N262        N263   1.316       .  A
N262       Mn266   2.196       .  S
N263        C270   1.350       .  A
N264        N265   1.318       .  A
N264       Mn267   2.184       .  S
N265        C269   1.350       .  A
Mn266      Cl268   2.515       .  S
Mn267      Cl268   2.551       .  S
C270       C2314   1.485       .  S
N271        N272   1.319       .  A
N271        N277   1.313   1_554  A
N271       Mn300   2.189       .  S
N272        C279   1.351   1_554  A
N273        N275   1.320   1_556  A
N273        N274   1.318       .  A
N273       Mn289   2.196       .  S
N274        C280   1.350       .  A
N275        N276   1.324       .  A
N275       Mn300   2.228       .  S
N276        C280   1.356   1_554  A
N277        N278   1.319       .  A
N277       Mn289   2.186       .  S
N278        C279   1.350       .  A
C279        C504   1.456       .  S
C280       C2237   1.493       .  S
N281        N287   1.318       .  A
N281        N282   1.322       .  A
N281       Mn311   2.216       .  S
N282        C290   1.355       .  A
N283        N284   1.319       .  A
N283        N285   1.312       .  A
N283       Mn289   2.187       .  S
N284        C291   1.351       .  A
N285        N286   1.318       .  A
N285       Mn311   2.177       .  S
N286        C291   1.349       .  A
N287        N288   1.319       .  A
N287       Mn289   2.200       .  S
N288        C290   1.349       .  A
Mn289      Cl313   2.528       .  S
C290       C2266   1.493       .  S
C291        C336   1.453       .  S
N292        N293   1.323       .  A
N292        N298   1.321       .  A
N292       Mn300   2.221       .  S
N293        C301   1.357       .  A
N294        N296   1.314       .  A
N294        N295   1.322       .  A
N294       Mn312   2.211       .  S
N295        C302   1.354       .  A
N296        N297   1.321       .  A
N296       Mn300   2.193       .  S
N297        C302   1.351       .  A
N298        N299   1.317       .  A
N298       Mn312   2.194       .  S
N299        C301   1.345       .  A
Mn300      Cl313   2.550   1_554  S
C301       C2250   1.499       .  S
C302        C426   1.468       .  S
N303        N304   1.319       .  A
N303        N309   1.313   1_556  A
N303       Mn311   2.194       .  S
N304        C314   1.351       .  A
N305        N306   1.323       .  A
N305        N307   1.319   1_554  A
N305       Mn312   2.223       .  S
N306        C315   1.357   1_554  A
N307        N308   1.319       .  A
N307       Mn311   2.200       .  S
N308        C315   1.350       .  A
N309        N310   1.318       .  A
N309       Mn312   2.177       .  S
N310        C314   1.349   1_554  A
Mn311      Cl313   2.547       .  S
Mn312      Cl313   2.529   1_554  S
C314        C459   1.455       .  S
C315       C2218   1.500       .  S
N316        N317   1.319       .  A
N316        N322   1.312   1_455  A
N316       Mn345   2.190       .  S
N317        C324   1.352       .  A
N318        N320   1.316   1_655  A
N318        N319   1.325       .  A
N318       Mn334   2.220       .  S
N319        C325   1.359   1_655  A
N320        N321   1.316       .  A
N320       Mn345   2.186       .  S
N321        C325   1.345       .  A
N322        N323   1.318       .  A
N322       Mn334   2.180       .  S
N323        C324   1.349   1_655  A
C324        C471   1.456       .  S
C325       C2170   1.497       .  S
N326        N332   1.321       .  A
N326        N327   1.325       .  A
N326       Mn356   2.229       .  S
N327        C335   1.356       .  A
N328        N329   1.318       .  A
N328        N330   1.314       .  A
N328       Mn334   2.193       .  S
N329        C336   1.350       .  A
N330        N331   1.318       .  A
N330       Mn356   2.179       .  S
N331        C336   1.349       .  A
N332        N333   1.318       .  A
N332       Mn334   2.204       .  S
N333        C335   1.352       .  A
Mn334      Cl358   2.543   1_655  S
C335       C2202   1.500       .  S
N337        N338   1.315       .  A
N337        N343   1.318       .  A
N337       Mn345   2.185       .  S
N338        C346   1.344       .  A
N339        N341   1.313       .  A
N339        N340   1.321       .  A
N339       Mn357   2.196       .  S
N340        C347   1.352       .  A
N341        N342   1.320       .  A
N341       Mn345   2.193       .  S
N342        C347   1.351       .  A
N343        N344   1.324       .  A
N343       Mn357   2.221       .  S
N344        C346   1.357       .  A
Mn345      Cl358   2.522       .  S
C346       C2157   1.486       .  S
C347        C381   1.464       .  S
N348        N349   1.322       .  A
N348        N354   1.315   1_655  A
N348       Mn356   2.210       .  S
N349        C359   1.354   1_655  A
N350        N351   1.319       .  A
N350        N352   1.321   1_455  A
N350       Mn357   2.220       .  S
N351        C360   1.355       .  A
N352        N353   1.322       .  A
N352       Mn356   2.205       .  S
N353        C360   1.351   1_655  A
N354        N355   1.321       .  A
N354       Mn357   2.196       .  S
N355        C359   1.351       .  A
Mn356      Cl358   2.537   1_655  S
Mn357      Cl358   2.547       .  S
C359        C527   1.468       .  S
C360       C2186   1.498       .  S
N361        N362   1.319       .  A
N361        N367   1.315   1_554  A
N361       Mn390   2.195       .  S
N362        C369   1.351   1_554  A
N363        N365   1.322   1_556  A
N363        N364   1.318       .  A
N363       Mn379   2.199       .  S
N364        C370   1.346       .  A
N365        N366   1.324       .  A
N365       Mn390   2.222       .  S
N366        C370   1.354   1_554  A
N367        N368   1.321       .  A
N367       Mn379   2.199       .  S
N368        C369   1.351       .  A
C369        C494   1.462       .  S
C370       C2138   1.487       .  S
N371        N377   1.317       .  A
N371        N372   1.317       .  A
N371       Mn401   2.187       .  S
N372        C380   1.350       .  A
N373        N374   1.320       .  A
N373        N375   1.312       .  A
N373       Mn379   2.189       .  S
N374        C381   1.351       .  A
N375        N376   1.321       .  A
N375       Mn401   2.197       .  S
N376        C381   1.352       .  A
N377        N378   1.323       .  A
N377       Mn379   2.214       .  S
N378        C380   1.355       .  A
Mn379      Cl403   2.536       .  S
C380       C2090   1.485       .  S
N382        N383   1.326       .  A
N382        N388   1.321       .  A
N382       Mn390   2.231       .  S
N383        C391   1.357       .  A
N384        N386   1.314       .  A
N384        N385   1.319       .  A
N384       Mn402   2.194       .  S
N385        C392   1.351       .  A
N386        N387   1.321       .  A
N386       Mn390   2.192       .  S
N387        C392   1.351       .  A
N388        N389   1.318       .  A
N388       Mn402   2.204       .  S
N389        C391   1.347       .  A
Mn390      Cl403   2.546   1_554  S
C391       C2106   1.499       .  S
C392        C437   1.460       .  S
N393        N394   1.317       .  A
N393        N399   1.313   1_556  A
N393       Mn401   2.180       .  S
N394        C404   1.349       .  A
N395        N396   1.325       .  A
N395        N397   1.317   1_554  A
N395       Mn402   2.211       .  S
N396        C405   1.355   1_554  A
N397        N398   1.315       .  A
N397       Mn401   2.194       .  S
N398        C405   1.350       .  A
N399        N400   1.318       .  A
N399       Mn402   2.184       .  S
N400        C404   1.350   1_554  A
Mn401      Cl403   2.523       .  S
Mn402      Cl403   2.538   1_554  S
C404        C539   1.451       .  S
C405       C2122   1.491       .  S
N406        N407   1.319       .  A
N406        N412   1.313   1_455  A
N406       Mn435   2.195       .  S
N407        C414   1.352       .  A
N408        N410   1.319   1_655  A
N408        N409   1.323       .  A
N408       Mn424   2.222       .  S
N409        C415   1.356   1_655  A
N410        N411   1.318       .  A
N410       Mn435   2.196       .  S
N411        C415   1.347       .  A
N412        N413   1.316       .  A
N412       Mn424   2.167       .  S
N413        C414   1.347   1_655  A
C414        C516   1.451       .  S
C415       C2058   1.488       .  S
N416        N422   1.318       .  A
N416        N417   1.320       .  A
N416       Mn446   2.214       .  S
N417        C425   1.355       .  A
N418        N419   1.322       .  A
N418        N420   1.314       .  A
N418       Mn424   2.208       .  S
N419        C426   1.354       .  A
N420        N421   1.321       .  A
N420       Mn446   2.193       .  S
N421        C426   1.351       .  A
N422        N423   1.320       .  A
N422       Mn424   2.194       .  S
N423        C425   1.349       .  A
Mn424      Cl448   2.548   1_655  S
C425       C2029   1.499       .  S
N427        N428   1.321       .  A
N427        N433   1.319       .  A
N427       Mn435   2.202       .  S
N428        C436   1.350       .  A
N429        N431   1.313       .  A
N429        N430   1.321       .  A
N429       Mn447   2.201       .  S
N430        C437   1.353       .  A
N431        N432   1.318       .  A
N431       Mn435   2.182       .  S
N432        C437   1.349       .  A
N433        N434   1.320       .  A
N433       Mn447   2.215       .  S
N434        C436   1.356       .  A
Mn435      Cl448   2.528       .  S
C436       C2042   1.500       .  S
N438        N439   1.320       .  A
N438        N444   1.314   1_655  A
N438       Mn446   2.201       .  S
N439        C449   1.352   1_655  A
N440        N441   1.325       .  A
N440        N442   1.320   1_455  A
N440       Mn447   2.221       .  S
N441        C450   1.355       .  A
N442        N443   1.317       .  A
N442       Mn446   2.207       .  S
N443        C450   1.351   1_655  A
N444        N445   1.319       .  A
N444       Mn447   2.181       .  S
N445        C449   1.349       .  A
Mn446      Cl448   2.525   1_655  S
Mn447      Cl448   2.549       .  S
C449        C482   1.458       .  S
C450       C2077   1.492   1_455  S
N451        N452   1.319       .  A
N451        N457   1.313   1_554  A
N451       Mn480   2.193       .  S
N452        C459   1.351   1_554  A
N453        N455   1.320   1_556  A
N453        N454   1.325       .  A
N453       Mn469   2.218       .  S
N454        C460   1.355   1_556  A
N455        N456   1.317       .  A
N455       Mn480   2.198       .  S
N456        C460   1.347       .  A
N457        N458   1.318       .  A
N457       Mn469   2.178       .  S
N458        C459   1.349       .  A
C460       C1962   1.493       .  S
N461        N467   1.322   1_455  A
N461        N462   1.325       .  A
N461       Mn491   2.227       .  S
N462        C470   1.356   1_455  A
N463        N464   1.319       .  A
N463        N465   1.314   1_655  A
N463       Mn469   2.198       .  S
N464        C471   1.351   1_655  A
N465        N466   1.319       .  A
N465       Mn491   2.182       .  S
N466        C471   1.349       .  A
N467        N468   1.318       .  A
N467       Mn469   2.201       .  S
N468        C470   1.346       .  A
Mn469      Cl493   2.527   1_655  S
C470       C1981   1.496       .  S
N472        N473   1.321       .  A
N472        N478   1.316   1_655  A
N472       Mn480   2.205       .  S
N473        C481   1.354   1_655  A
N474        N476   1.313   1_455  A
N474        N475   1.320       .  A
N474       Mn492   2.195       .  S
N475        C482   1.352       .  A
N476        N477   1.319       .  A
N476       Mn480   2.181       .  S
N477        C482   1.349   1_655  A
N478        N479   1.317       .  A
N478       Mn492   2.187       .  S
N479        C481   1.347       .  A
Mn480      Cl493   2.539   1_654  S
C481       C2013   1.480       .  S
N483        N484   1.321       .  A
N483        N489   1.314   1_556  A
N483       Mn491   2.198       .  S
N484        C494   1.352       .  A
N485        N486   1.315       .  A
N485        N487   1.318   1_554  A
N485       Mn492   2.184       .  S
N486        C495   1.343       .  A
N487        N488   1.325       .  A
N487       Mn491   2.224       .  S
N488        C495   1.359   1_556  A
N489        N490   1.319       .  A
N489       Mn492   2.190       .  S
N490        C494   1.350   1_554  A
Mn491      Cl493   2.556       .  S
Mn492      Cl493   2.515   1_554  S
C495       C1994   1.492       .  S
N496        N497   1.319       .  A
N496        N502   1.313   1_556  A
N496       Mn525   2.189       .  S
N497        C504   1.351       .  A
N498        N500   1.318   1_554  A
N498        N499   1.316       .  A
N498       Mn514   2.181       .  S
N499        C505   1.344       .  A
N500        N501   1.324       .  A
N500       Mn525   2.220       .  S
N501        C505   1.356   1_556  A
N502        N503   1.318       .  A
N502       Mn514   2.186       .  S
N503        C504   1.350   1_554  A
C505       C1901   1.481       .  S
N506        N512   1.317   1_455  A
N506        N507   1.325       .  A
N506       Mn536   2.219       .  S
N507        C515   1.357       .  A
N508        N509   1.318       .  A
N508        N510   1.311   1_655  A
N508       Mn514   2.185       .  S
N509        C516   1.351   1_655  A
N510        N511   1.318       .  A
N510       Mn536   2.170       .  S
N511        C516   1.348       .  A
N512        N513   1.316       .  A
N512       Mn514   2.188       .  S
N513        C515   1.349   1_655  A
Mn514      Cl538   2.515   1_654  S
C515       C1946   1.488       .  S
N517        N518   1.319       .  A
N517        N523   1.321   1_655  A
N517       Mn525   2.217       .  S
N518        C526   1.354   1_655  A
N519        N521   1.314   1_455  A
N519        N520   1.323       .  A
N519       Mn537   2.209       .  S
N520        C527   1.354       .  A
N521        N522   1.320       .  A
N521       Mn525   2.193       .  S
N522        C527   1.350   1_655  A
N523        N524   1.322       .  A
N523       Mn537   2.209       .  S
N524        C526   1.351       .  A
Mn525      Cl538   2.543   1_655  S
C526       C1933   1.495       .  S
N528        N529   1.318       .  A
N528        N534   1.314   1_554  A
N528       Mn536   2.187       .  S
N529        C539   1.349   1_554  A
N530        N531   1.323       .  A
N530        N532   1.321   1_556  A
N530       Mn537   2.224       .  S
N531        C540   1.354   1_556  A
N532        N533   1.319       .  A
N532       Mn536   2.192       .  S
N533        C540   1.347       .  A
N534        N535   1.318       .  A
N534       Mn537   2.183       .  S
N535        C539   1.350       .  A
Mn536      Cl538   2.544   1_554  S
Mn537      Cl538   2.536       .  S
C540       C1917   1.487       .  S
N541        N542   1.322       .  A
N541        N547   1.314       .  A
N541       Mn570   2.197       .  S
N542        C549   1.352       .  A
N543        N545   1.320       .  A
N543        N544   1.318       .  A
N543       Mn559   2.210       .  S
N544        C550   1.353       .  A
N545        N546   1.324       .  A
N545       Mn570   2.213       .  S
N546        C550   1.354       .  A
N547        N548   1.318       .  A
N547       Mn559   2.192       .  S
N548        C549   1.350       .  A
C549        C606   1.462       .  S
C550       C1882   1.490       .  S
N551        N557   1.318   1_554  A
N551        N552   1.319       .  A
N551       Mn581   2.205       .  S
N552        C560   1.354   1_554  A
N553        N554   1.320       .  A
N553        N555   1.314   1_556  A
N553       Mn559   2.194       .  S
N554        C561   1.352       .  A
N555        N556   1.319       .  A
N555       Mn581   2.190       .  S
N556        C561   1.350   1_554  A
N557        N558   1.322       .  A
N557       Mn559   2.205       .  S
N558        C560   1.352       .  A
Mn559      Cl583   2.534       .  S
C560       C1850   1.498       .  S
C561        C786   1.460       .  S
N562        N563   1.323       .  A
N562        N568   1.319   1_556  A
N562       Mn570   2.215       .  S
N563        C571   1.356       .  A
N564        N566   1.314   1_554  A
N564        N565   1.320       .  A
N564       Mn582   2.190       .  S
N565        C572   1.350   1_554  A
N566        N567   1.319       .  A
N566       Mn570   2.193       .  S
N567        C572   1.351       .  A
N568        N569   1.319       .  A
N568       Mn582   2.207       .  S
N569        C571   1.351   1_554  A
Mn570      Cl583   2.549       .  S
C571       C1834   1.497       .  S
C572        C729   1.458       .  S
N573        N574   1.319       .  A
N573        N579   1.313       .  A
N573       Mn581   2.191       .  S
N574        C584   1.351       .  A
N575        N576   1.321       .  A
N575        N577   1.319       .  A
N575       Mn582   2.215       .  S
N576        C585   1.355       .  A
N577        N578   1.321       .  A
N577       Mn581   2.205       .  S
N578        C585   1.351       .  A
N579        N580   1.320       .  A
N579       Mn582   2.190       .  S
N580        C584   1.351       .  A
Mn581      Cl583   2.539   1_554  S
Mn582      Cl583   2.536   1_554  S
C584        C684   1.459       .  S
C585       C1866   1.494       .  S
N586        N587   1.317       .  A
N586        N592   1.314   1_545  A
N586       Mn615   2.172       .  S
N587        C594   1.347   1_545  A
N588        N590   1.321   1_565  A
N588        N589   1.320       .  A
N588       Mn604   2.206       .  S
N589        C595   1.349       .  A
N590        N591   1.323       .  A
N590       Mn615   2.219       .  S
N591        C595   1.354   1_545  A
N592        N593   1.321       .  A
N592       Mn604   2.202       .  S
N593        C594   1.353       .  A
C594        C809   1.455       .  S
C595       C1770   1.489       .  S
N596        N602   1.320       .  A
N596        N597   1.319       .  A
N596       Mn626   2.209       .  S
N597        C605   1.353       .  A
N598        N599   1.318       .  A
N598        N600   1.314       .  A
N598       Mn604   2.187       .  S
N599        C606   1.350       .  A
N600        N601   1.322       .  A
N600       Mn626   2.201       .  S
N601        C606   1.352       .  A
N602        N603   1.324       .  A
N602       Mn604   2.216       .  S
N603        C605   1.353       .  A
Mn604      Cl628   2.535       .  S
C605       C1818   1.489       .  S
N607        N608   1.324       .  A
N607        N613   1.320       .  A
N607       Mn615   2.206       .  S
N608        C616   1.352       .  A
N609        N611   1.313       .  A
N609        N610   1.319       .  A
N609       Mn627   2.184       .  S
N610        C617   1.350       .  A
N611        N612   1.322       .  A
N611       Mn615   2.204       .  S
N612        C617   1.354       .  A
N613        N614   1.321       .  A
N613       Mn627   2.225       .  S
N614        C616   1.353       .  A
Mn615      Cl628   2.547   1_545  S
C616       C1802   1.487       .  S
C617        C639   1.463       .  S
N618        N619   1.318       .  A
N618        N624   1.314   1_565  A
N618       Mn626   2.180       .  S
N619        C629   1.349       .  A
N620        N621   1.315       .  A
N620        N622   1.319   1_545  A
N620       Mn627   2.198       .  S
N621        C630   1.346       .  A
N622        N623   1.326       .  A
N622       Mn626   2.219       .  S
N623        C630   1.358   1_565  A
N624        N625   1.322       .  A
N624       Mn627   2.208       .  S
N625        C629   1.354   1_545  A
Mn626      Cl628   2.548       .  S
Mn627      Cl628   2.526   1_545  S
C629        C752   1.461       .  S
C630       C1789   1.501       .  S
N631        N632   1.320       .  A
N631        N637   1.314       .  A
N631       Mn660   2.193       .  S
N632        C639   1.351       .  A
N633        N635   1.320       .  A
N633        N634   1.322       .  A
N633       Mn649   2.213       .  S
N634        C640   1.353       .  A
N635        N636   1.320       .  A
N635       Mn660   2.211       .  S
N636        C640   1.354       .  A
N637        N638   1.320       .  A
N637       Mn649   2.202       .  S
N638        C639   1.353       .  A
C640       C1738   1.504       .  S
N641        N647   1.321   1_554  A
N641        N642   1.317       .  A
N641       Mn671   2.195       .  S
N642        C650   1.346       .  A
N643        N644   1.318       .  A
N643        N645   1.314   1_556  A
N643       Mn649   2.184       .  S
N644        C651   1.350       .  A
N645        N646   1.319       .  A
N645       Mn671   2.190       .  S
N646        C651   1.350   1_554  A
N647        N648   1.323       .  A
N647       Mn649   2.220       .  S
N648        C650   1.355   1_556  A
Mn649      Cl673   2.545   1_556  S
C650       C1725   1.487       .  S
C651        C764   1.455       .  S
N652        N653   1.323       .  A
N652        N658   1.320   1_556  A
N652       Mn660   2.213       .  S
N653        C661   1.353   1_556  A
N654        N656   1.314   1_554  A
N654        N655   1.318       .  A
N654       Mn672   2.188       .  S
N655        C662   1.350   1_554  A
N656        N657   1.319       .  A
N656       Mn660   2.185       .  S
N657        C662   1.350       .  A
N658        N659   1.318       .  A
N658       Mn672   2.204       .  S
N659        C661   1.352       .  A
Mn660      Cl673   2.539   1_556  S
C661       C1709   1.486       .  S
C662        C797   1.455       .  S
N663        N664   1.319       .  A
N663        N669   1.313       .  A
N663       Mn671   2.186       .  S
N664        C674   1.350       .  A
N665        N666   1.321       .  A
N665        N667   1.317       .  A
N665       Mn672   2.206       .  S
N666        C675   1.352       .  A
N667        N668   1.322       .  A
N667       Mn671   2.207       .  S
N668        C675   1.355       .  A
N669        N670   1.321       .  A
N669       Mn672   2.197       .  S
N670        C674   1.353       .  A
Mn671      Cl673   2.530       .  S
Mn672      Cl673   2.536       .  S
C674        C719   1.460       .  S
C675       C1754   1.498       .  S
N676        N677   1.320       .  A
N676        N682   1.314       .  A
N676       Mn705   2.193       .  S
N677        C684   1.351       .  A
N678        N680   1.320       .  A
N678        N679   1.316       .  A
N678       Mn694   2.203       .  S
N679        C685   1.350       .  A
N680        N681   1.325       .  A
N680       Mn705   2.214       .  S
N681        C685   1.354       .  A
N682        N683   1.319       .  A
N682       Mn694   2.189       .  S
N683        C684   1.350       .  A
C685       C1658   1.489       .  S
N686        N692   1.318   1_545  A
N686        N687   1.322       .  A
N686       Mn716   2.210       .  S
N687        C695   1.356   1_545  A
N688        N689   1.320       .  A
N688        N690   1.313   1_565  A
N688       Mn694   2.194       .  S
N689        C696   1.352       .  A
N690        N691   1.319       .  A
N690       Mn716   2.185       .  S
N691        C696   1.350   1_545  A
N692        N693   1.319       .  A
N692       Mn694   2.200       .  S
N693        C695   1.349       .  A
Mn694      Cl718   2.519       .  S
C695       C1690   1.499       .  S
C696        C774   1.459       .  S
N697        N698   1.326       .  A
N697        N703   1.321   1_565  A
N697       Mn705   2.224       .  S
N698        C706   1.355       .  A
N699        N701   1.313   1_545  A
N699        N700   1.319       .  A
N699       Mn717   2.186       .  S
N700        C707   1.350   1_545  A
N701        N702   1.317       .  A
N701       Mn705   2.183       .  S
N702        C707   1.350       .  A
N703        N704   1.318       .  A
N703       Mn717   2.208       .  S
N704        C706   1.351   1_545  A
Mn705      Cl718   2.555       .  S
C706       C1674   1.490       .  S
C707        C741   1.453       .  S
N708        N709   1.320       .  A
N708        N714   1.313       .  A
N708       Mn716   2.191       .  S
N709        C719   1.350       .  A
N710        N711   1.322       .  A
N710        N712   1.320       .  A
N710       Mn717   2.205       .  S
N711        C720   1.351       .  A
N712        N713   1.320       .  A
N712       Mn716   2.214       .  S
N713        C720   1.352       .  A
N714        N715   1.320       .  A
N714       Mn717   2.193       .  S
N715        C719   1.352       .  A
Mn716      Cl718   2.543   1_545  S
Mn717      Cl718   2.525   1_545  S
C720       C1645   1.479       .  S
N721        N722   1.318       .  A
N721        N727   1.314   1_556  A
N721       Mn750   2.184       .  S
N722        C729   1.349       .  A
N723        N725   1.320   1_554  A
N723        N724   1.323       .  A
N723       Mn739   2.200       .  S
N724        C730   1.353   1_554  A
N725        N726   1.316       .  A
N725       Mn750   2.205       .  S
N726        C730   1.347       .  A
N727        N728   1.321       .  A
N727       Mn739   2.197       .  S
N728        C729   1.352   1_554  A
C730       C1578   1.494       .  S
N731        N737   1.321   1_545  A
N731        N732   1.323       .  A
N731       Mn761   2.217       .  S
N732        C740   1.353   1_545  A
N733        N734   1.317       .  A
N733        N735   1.314   1_565  A
N733       Mn739   2.180       .  S
N734        C741   1.348       .  A
N735        N736   1.320       .  A
N735       Mn761   2.193       .  S
N736        C741   1.351   1_545  A
N737        N738   1.321       .  A
N737       Mn739   2.216       .  S
N738        C740   1.353       .  A
Mn739      Cl763   2.530   1_554  S
C740       C1626   1.493       .  S
N742        N743   1.325       .  A
N742        N748   1.316   1_565  A
N742       Mn750   2.208       .  S
N743        C751   1.355       .  A
N744        N746   1.312   1_545  A
N744        N745   1.321       .  A
N744       Mn762   2.190       .  S
N745        C752   1.351   1_545  A
N746        N747   1.319       .  A
N746       Mn750   2.191       .  S
N747        C752   1.352       .  A
N748        N749   1.314       .  A
N748       Mn762   2.188       .  S
N749        C751   1.350   1_545  A
Mn750      Cl763   2.542       .  S
C751       C1610   1.494       .  S
N753        N754   1.319       .  A
N753        N759   1.313   1_554  A
N753       Mn761   2.188       .  S
N754        C764   1.351   1_554  A
N755        N756   1.315       .  A
N755        N757   1.318   1_556  A
N755       Mn762   2.183       .  S
N756        C765   1.344       .  A
N757        N758   1.324       .  A
N757       Mn761   2.223       .  S
N758        C765   1.359   1_554  A
N759        N760   1.318       .  A
N759       Mn762   2.185       .  S
N760        C764   1.350       .  A
Mn761      Cl763   2.553   1_544  S
Mn762      Cl763   2.513   1_545  S
C765       C1594   1.492       .  S
N766        N767   1.320       .  A
N766        N772   1.314   1_545  A
N766       Mn795   2.195       .  S
N767        C774   1.351   1_545  A
N768        N770   1.320   1_565  A
N768        N769   1.319       .  A
N768       Mn784   2.204       .  S
N769        C775   1.352       .  A
N770        N771   1.320       .  A
N770       Mn795   2.204       .  S
N771        C775   1.351   1_545  A
N772        N773   1.319       .  A
N772       Mn784   2.188       .  S
N773        C774   1.350       .  A
C775       C1562   1.491       .  S
N776        N782   1.320   1_556  A
N776        N777   1.318       .  A
N776       Mn806   2.206       .  S
N777        C785   1.349   1_556  A
N778        N779   1.319       .  A
N778        N780   1.313   1_554  A
N778       Mn784   2.188       .  S
N779        C786   1.351   1_554  A
N780        N781   1.320       .  A
N780       Mn806   2.195       .  S
N781        C786   1.351       .  A
N782        N783   1.322       .  A
N782       Mn784   2.204       .  S
N783        C785   1.352       .  A
Mn784      Cl808   2.531       .  S
C785       C1530   1.495   1_554  S
N787        N788   1.326       .  A
N787        N793   1.319   1_554  A
N787       Mn795   2.221       .  S
N788        C796   1.356       .  A
N789        N791   1.313   1_556  A
N789        N790   1.320       .  A
N789       Mn807   2.193       .  S
N790        C797   1.351       .  A
N791        N792   1.318       .  A
N791       Mn795   2.181       .  S
N792        C797   1.349   1_554  A
N793        N794   1.318       .  A
N793       Mn807   2.207       .  S
N794        C796   1.352   1_556  A
Mn795      Cl808   2.549   1_545  S
C796       C1514   1.492   1_554  S
N798        N799   1.318       .  A
N798        N804   1.313   1_565  A
N798       Mn806   2.174       .  S
N799        C809   1.348       .  A
N800        N801   1.317       .  A
N800        N802   1.319   1_545  A
N800       Mn807   2.202       .  S
N801        C810   1.351   1_545  A
N802        N803   1.325       .  A
N802       Mn806   2.217       .  S
N803        C810   1.355       .  A
N804        N805   1.319       .  A
N804       Mn807   2.199       .  S
N805        C809   1.352   1_545  A
Mn806      Cl808   2.545   1_556  S
Mn807      Cl808   2.520   1_546  S
C810       C1546   1.495   1_565  S
N811        N812   1.319       .  A
N811        N817   1.313   1_455  A
N811       Mn840   2.196       .  S
N812        C819   1.352       .  A
N813        N815   1.318   1_655  A
N813        N814   1.317       .  A
N813       Mn829   2.204       .  S
N814        C820   1.352   1_655  A
N815        N816   1.324       .  A
N815       Mn840   2.213       .  S
N816        C820   1.355       .  A
N817        N818   1.320       .  A
N817       Mn829   2.187       .  S
N818        C819   1.350   1_655  A
C819       C1044   1.461       .  S
C820       C1482   1.486       .  S
N821        N827   1.318       .  A
N821        N822   1.324       .  A
N821       Mn851   2.216       .  S
N822        C830   1.355       .  A
N823        N824   1.321       .  A
N823        N825   1.314       .  A
N823       Mn829   2.200       .  S
N824        C831   1.352       .  A
N825        N826   1.320       .  A
N825       Mn851   2.191       .  S
N826        C831   1.351       .  A
N827        N828   1.317       .  A
N827       Mn829   2.195       .  S
N828        C830   1.350       .  A
Mn829      Cl853   2.525   1_655  S
C830       C1501   1.485       .  S
C831        C876   1.464       .  S
N832        N833   1.322       .  A
N832        N838   1.320       .  A
N832       Mn840   2.212       .  S
N833        C841   1.354       .  A
N834        N836   1.314       .  A
N834        N835   1.319       .  A
N834       Mn852   2.187       .  S
N835        C842   1.349       .  A
N836        N837   1.319       .  A
N836       Mn840   2.191       .  S
N837        C842   1.351       .  A
N838        N839   1.321       .  A
N838       Mn852   2.212       .  S
N839        C841   1.351       .  A
Mn840      Cl853   2.546       .  S
C841       C1453   1.500       .  S
C842        C909   1.455       .  S
N843        N844   1.320       .  A
N843        N849   1.314   1_655  A
N843       Mn851   2.201       .  S
N844        C854   1.353   1_655  A
N845        N846   1.324       .  A
N845        N847   1.320   1_455  A
N845       Mn852   2.215       .  S
N846        C855   1.355       .  A
N847        N848   1.318       .  A
N847       Mn851   2.205       .  S
N848        C855   1.348   1_655  A
N849        N850   1.319       .  A
N849       Mn852   2.181       .  S
N850        C854   1.349       .  A
Mn851      Cl853   2.541   1_655  S
Mn852      Cl853   2.537       .  S
C854        C999   1.459       .  S
C855       C1469   1.495       .  S
N856        N857   1.319       .  A
N856        N862   1.313   1_545  A
N856       Mn885   2.193       .  S
N857        C864   1.351   1_545  A
N858        N860   1.318   1_565  A
N858        N859   1.323       .  A
N858       Mn874   2.213       .  S
N859        C865   1.354       .  A
N860        N861   1.317       .  A
N860       Mn885   2.193       .  S
N861        C865   1.350   1_545  A
N862        N863   1.319       .  A
N862       Mn874   2.188       .  S
N863        C864   1.351       .  A
C864       C1011   1.459       .  S
C865       C1402   1.485       .  S
N866        N872   1.321       .  A
N866        N867   1.323       .  A
N866       Mn896   2.223       .  S
N867        C875   1.355       .  A
N868        N869   1.320       .  A
N868        N870   1.315       .  A
N868       Mn874   2.197       .  S
N869        C876   1.351       .  A
N870        N871   1.321       .  A
N870       Mn896   2.199       .  S
N871        C876   1.352       .  A
N872        N873   1.319       .  A
N872       Mn874   2.202       .  S
N873        C875   1.351       .  A
Mn874      Cl898   2.538       .  S
C875       C1434   1.490       .  S
N877        N878   1.319       .  A
N877        N883   1.318       .  A
N877       Mn885   2.206       .  S
N878        C886   1.353       .  A
N879        N881   1.313       .  A
N879        N880   1.319       .  A
N879       Mn897   2.193       .  S
N880        C887   1.352       .  A
N881        N882   1.319       .  A
N881       Mn885   2.181       .  S
N882        C887   1.349       .  A
N883        N884   1.325       .  A
N883       Mn897   2.213       .  S
N884        C886   1.354       .  A
Mn885      Cl898   2.532   1_545  S
C886       C1386   1.493       .  S
C887        C954   1.456       .  S
N888        N889   1.320       .  A
N888        N894   1.315   1_565  A
N888       Mn896   2.189       .  S
N889        C899   1.351       .  A
N890        N891   1.316       .  A
N890        N892   1.321   1_545  A
N890       Mn897   2.206       .  S
N891        C900   1.350   1_545  A
N892        N893   1.327       .  A
N892       Mn896   2.225       .  S
N893        C900   1.356       .  A
N894        N895   1.320       .  A
N894       Mn897   2.201       .  S
N895        C899   1.351   1_545  A
Mn896      Cl898   2.552       .  S
Mn897      Cl898   2.531   1_545  S
C899       C1067   1.461       .  S
C900       C1418   1.496       .  S
N901        N902   1.318       .  A
N901        N907   1.313       .  A
N901       Mn930   2.181       .  S
N902        C909   1.349       .  A
N903        N905   1.318       .  A
N903        N904   1.322       .  A
N903       Mn919   2.205       .  S
N904        C910   1.351       .  A
N905        N906   1.319       .  A
N905       Mn930   2.202       .  S
N906        C910   1.353       .  A
N907        N908   1.319       .  A
N907       Mn919   2.191       .  S
N908        C909   1.351       .  A
C910       C1354   1.498       .  S
N911        N917   1.322   1_545  A
N911        N912   1.325       .  A
N911       Mn941   2.224       .  S
N912        C920   1.355   1_545  A
N913        N914   1.318       .  A
N913        N915   1.313   1_565  A
N913       Mn919   2.188       .  S
N914        C921   1.350       .  A
N915        N916   1.318       .  A
N915       Mn941   2.177       .  S
N916        C921   1.349   1_545  A
N917        N918   1.319       .  A
N917       Mn919   2.207       .  S
N918        C920   1.348       .  A
Mn919      Cl943   2.525       .  S
C920       C1370   1.492       .  S
C921       C1022   1.452       .  S
N922        N923   1.320       .  A
N922        N928   1.318   1_565  A
N922       Mn930   2.202       .  S
N923        C931   1.351       .  A
N924        N926   1.312   1_545  A
N924        N925   1.319       .  A
N924       Mn942   2.187       .  S
N925        C932   1.351   1_545  A
N926        N927   1.319       .  A
N926       Mn930   2.184       .  S
N927        C932   1.350       .  A
N928        N929   1.320       .  A
N928       Mn942   2.204       .  S
N929        C931   1.353   1_545  A
Mn930      Cl943   2.540       .  S
C931       C1322   1.495       .  S
C932       C1056   1.456       .  S
N933        N934   1.319       .  A
N933        N939   1.314       .  A
N933       Mn941   2.193       .  S
N934        C944   1.352       .  A
N935        N936   1.315       .  A
N935        N937   1.321       .  A
N935       Mn942   2.201       .  S
N936        C945   1.345       .  A
N937        N938   1.325       .  A
N937       Mn941   2.210       .  S
N938        C945   1.354       .  A
N939        N940   1.320       .  A
N939       Mn942   2.191       .  S
N940        C944   1.350       .  A
Mn941      Cl943   2.552   1_545  S
Mn942      Cl943   2.520   1_545  S
C944        C989   1.460       .  S
C945       C1338   1.492       .  S
N946        N947   1.320       .  A
N946        N952   1.313       .  A
N946       Mn975   2.197       .  S
N947        C954   1.353       .  A
N948        N950   1.318       .  A
N948        N949   1.318       .  A
N948       Mn964   2.202       .  S
N949        C955   1.352       .  A
N950        N951   1.324       .  A
N950       Mn975   2.217       .  S
N951        C955   1.355       .  A
N952        N953   1.317       .  A
N952       Mn964   2.179       .  S
N953        C954   1.348       .  A
C955       C1274   1.491       .  S
N956        N962   1.319   1_455  A
N956        N957   1.324       .  A
N956       Mn986   2.227       .  S
N957        C965   1.358   1_455  A
N958        N959   1.321       .  A
N958        N960   1.313   1_655  A
N958       Mn964   2.199       .  S
N959        C966   1.352   1_655  A
N960        N961   1.317       .  A
N960       Mn986   2.177       .  S
N961        C966   1.349       .  A
N962        N963   1.317       .  A
N962       Mn964   2.188       .  S
N963        C965   1.345       .  A
Mn964      Cl988   2.522   1_655  S
C965       C1261   1.493       .  S
C966       C1079   1.458       .  S
N967        N968   1.322       .  A
N967        N973   1.320   1_655  A
N967       Mn975   2.215       .  S
N968        C976   1.355   1_655  A
N969        N971   1.315   1_455  A
N969        N970   1.322       .  A
N969       Mn987   2.210       .  S
N970        C977   1.354       .  A
N971        N972   1.320       .  A
N971       Mn975   2.189       .  S
N972        C977   1.350   1_655  A
N973        N974   1.317       .  A
N973       Mn987   2.200       .  S
N974        C976   1.347       .  A
Mn975      Cl988   2.554   1_655  S
C976       C1309   1.491       .  S
C977       C1034   1.466       .  S
N978        N979   1.321       .  A
N978        N984   1.314       .  A
N978       Mn986   2.206       .  S
N979        C989   1.353       .  A
N980        N981   1.324       .  A
N980        N982   1.319       .  A
N980       Mn987   2.218       .  S
N981        C990   1.356       .  A
N982        N983   1.319       .  A
N982       Mn986   2.204       .  S
N983        C990   1.350       .  A
N984        N985   1.318       .  A
N984       Mn987   2.182       .  S
N985        C989   1.349       .  A
Mn986      Cl988   2.547       .  S
Mn987      Cl988   2.530       .  S
C990       C1293   1.503       .  S
N991        N992   1.321       .  A
N991        N997   1.313   1_455  A
N991      Mn1020   2.204       .  S
N992        C999   1.353       .  A
N993        N995   1.319   1_655  A
N993        N994   1.321       .  A
N993      Mn1009   2.202       .  S
N994       C1000   1.350   1_655  A
N995        N996   1.321       .  A
N995      Mn1020   2.215       .  S
N996       C1000   1.356       .  A
N997        N998   1.318       .  A
N997      Mn1009   2.177       .  S
N998        C999   1.348   1_655  A
C1000      C1210   1.502       .  S
N1001      N1007   1.318   1_545  A
N1001      N1002   1.322       .  A
N1001     Mn1031   2.212       .  S
N1002      C1010   1.353   1_545  A
N1003      N1004   1.319       .  A
N1003      N1005   1.313   1_565  A
N1003     Mn1009   2.192       .  S
N1004      C1011   1.351       .  A
N1005      N1006   1.319       .  A
N1005     Mn1031   2.186       .  S
N1006      C1011   1.351   1_545  A
N1007      N1008   1.318       .  A
N1007     Mn1009   2.193       .  S
N1008      C1010   1.351       .  A
Mn1009    Cl1033   2.534   1_655  S
C1010      C1229   1.485       .  S
N1012      N1013   1.325       .  A
N1012      N1018   1.321   1_565  A
N1012     Mn1020   2.225       .  S
N1013      C1021   1.355       .  A
N1014      N1016   1.314   1_545  A
N1014      N1015   1.319       .  A
N1014     Mn1032   2.192       .  S
N1015      C1022   1.351   1_545  A
N1016      N1017   1.317       .  A
N1016     Mn1020   2.178       .  S
N1017      C1022   1.348       .  A
N1018      N1019   1.319       .  A
N1018     Mn1032   2.213       .  S
N1019      C1021   1.353   1_545  A
Mn1020    Cl1033   2.543       .  S
C1021      C1194   1.502       .  S
N1023      N1024   1.321       .  A
N1023      N1029   1.314   1_655  A
N1023     Mn1031   2.206       .  S
N1024      C1034   1.353   1_655  A
N1025      N1026   1.326       .  A
N1025      N1027   1.319   1_455  A
N1025     Mn1032   2.218       .  S
N1026      C1035   1.356   1_455  A
N1027      N1028   1.316       .  A
N1027     Mn1031   2.203       .  S
N1028      C1035   1.347       .  A
N1029      N1030   1.321       .  A
N1029     Mn1032   2.191       .  S
N1030      C1034   1.351       .  A
Mn1031    Cl1033   2.534   1_645  S
Mn1032    Cl1033   2.542   1_545  S
C1035      C1245   1.498       .  S
N1036      N1037   1.322       .  A
N1036      N1042   1.313   1_655  A
N1036     Mn1065   2.200       .  S
N1037      C1044   1.354   1_655  A
N1038      N1040   1.319   1_455  A
N1038      N1039   1.317       .  A
N1038     Mn1054   2.204       .  S
N1039      C1045   1.353       .  A
N1040      N1041   1.323       .  A
N1040     Mn1065   2.211       .  S
N1041      C1045   1.354   1_655  A
N1042      N1043   1.318       .  A
N1042     Mn1054   2.184       .  S
N1043      C1044   1.348       .  A
C1045      C1178   1.490       .  S
N1046      N1052   1.317   1_545  A
N1046      N1047   1.318       .  A
N1046     Mn1076   2.204       .  S
N1047      C1055   1.354   1_545  A
N1048      N1049   1.319       .  A
N1048      N1050   1.313   1_565  A
N1048     Mn1054   2.188       .  S
N1049      C1056   1.351       .  A
N1050      N1051   1.318       .  A
N1050     Mn1076   2.184       .  S
N1051      C1056   1.350   1_545  A
N1052      N1053   1.323       .  A
N1052     Mn1054   2.198       .  S
N1053      C1055   1.352       .  A
Mn1054    Cl1078   2.541       .  S
C1055      C1162   1.500       .  S
N1057      N1058   1.320       .  A
N1057      N1063   1.320   1_565  A
N1057     Mn1065   2.214       .  S
N1058      C1066   1.351       .  A
N1059      N1061   1.315   1_545  A
N1059      N1060   1.320       .  A
N1059     Mn1077   2.197       .  S
N1060      C1067   1.351   1_545  A
N1061      N1062   1.320       .  A
N1061     Mn1065   2.195       .  S
N1062      C1067   1.351       .  A
N1063      N1064   1.322       .  A
N1063     Mn1077   2.216       .  S
N1064      C1066   1.355   1_545  A
Mn1065    Cl1078   2.538   1_655  S
C1066      C1130   1.496       .  S
N1068      N1069   1.318       .  A
N1068      N1074   1.313   1_455  A
N1068     Mn1076   2.193       .  S
N1069      C1079   1.351       .  A
N1070      N1071   1.325       .  A
N1070      N1072   1.321   1_655  A
N1070     Mn1077   2.225       .  S
N1071      C1080   1.356   1_655  A
N1072      N1073   1.318       .  A
N1072     Mn1076   2.197       .  S
N1073      C1080   1.346       .  A
N1074      N1075   1.320       .  A
N1074     Mn1077   2.185       .  S
N1075      C1079   1.350   1_655  A
Mn1076    Cl1078   2.525   1_545  S
Mn1077    Cl1078   2.546   1_645  S
C1080      C1149   1.491       .  S
C1081      C1082   1.378       .  D
C1081      C2010   1.508       .  S
C1081      C2074   1.519       .  S
C1082      C1242   1.502       .  S
C1082      C1306   1.502       .  S
C1083      C1084   1.379       .  D
C1083      C1226   1.518       .  S
C1083      C1405   1.508       .  S
C1084      C1565   1.514       .  S
C1084      C1693   1.516       .  S
C1085      C1086   1.385       .  D
C1085      C1949   1.528   1_455  S
C1085      C2061   1.507       .  S
C1086      C1213   1.512       .  S
C1086      C1466   1.518       .  S
C1087      C1088   1.378   1_565  D
C1087      C1629   1.514       .  S
C1087      C1677   1.511       .  S
C1088      C1197   1.512       .  S
C1088      C1373   1.514   1_545  S
C1089      C1090   1.382       .  D
C1089      C2330   1.508       .  S
C1089      C2637   1.544       .  S
C1090      C1290   1.520       .  S
C1090      C1341   1.499       .  S
C1091      C1092   1.377       .  D
C1091      C2442   1.515       .  S
C1091      C2653   1.514       .  S
C1092      C1277   1.511       .  S
C1092      C1389   1.509       .  S
C1093      C1094   1.377       .  D
C1093      C2317   1.511       .  S
C1093      C2509   1.512       .  S
C1094      C1357   1.508       .  S
C1094      C1450   1.516       .  S
C1095      C1096   1.387       .  D
C1095      C1165   1.533       .  S
C1095      C1325   1.529       .  S
C1096      C1613   1.514       .  S
C1096      C1786   1.524       .  S
C1097      C1098   1.373       .  D
C1097      C1997   1.509       .  S
C1097      C2141   1.515       .  S
C1098      C1597   1.509       .  S
C1098      C1722   1.508       .  S
C1099      C1100   1.378       .  D
C1099      C1914   1.525       .  S
C1099      C2125   1.512       .  S
C1100      C1581   1.498       .  S
C1100      C1837   1.507       .  S
C1101      C1102   1.375       .  D
C1101      C1661   1.505       .  S
C1101      C1869   1.508       .  S
C1102      C2525   1.512       .  S
C1102      C2589   1.514       .  S
C1103      C1104   1.388       .  D
C1103      C2573   1.529       .  S
C1103      C2618   1.501       .  S
C1104      C1642   1.561       .  S
C1104      C1757   1.512       .  S
C1105      C1106   1.396       .  D
C1105      C1741   1.526       .  S
C1105      C1805   1.552       .  S
C1106      C2397   1.513       .  S
C1106      C2605   1.533       .  S
C1107      C1108   1.378       .  D
C1107      C1978   1.510       .  S
C1107      C2173   1.510       .  S
C1108      C1146   1.516       .  S
C1108      C1258   1.513   1_455  S
C1109      C1110   1.380       .  D
C1109      C1965   1.511       .  S
C1109      C2221   1.509   1_554  S
C1110      C1517   1.514   1_554  S
C1110      C1706   1.514       .  S
C1111      C1112   1.377       .  D
C1111      C2301   1.517       .  S
C1111      C2557   1.509       .  S
C1112      C2045   1.509       .  S
C1112      C2109   1.510       .  S
C1113      C1114   1.387       .  D
C1113      C2461   1.521       .  S
C1113      C2541   1.521       .  S
C1114      C2026   1.509       .  S
C1114      C2253   1.510       .  S
C1115      C1116   1.384       .  D
C1115      C2282   1.517       .  S
C1115      C2381   1.510       .  S
C1116      C2093   1.529       .  S
C1116      C2154   1.504       .  S
C1117      C1118   1.377       .  D
C1117      C1930   1.506       .  S
C1117      C2189   1.511       .  S
C1118      C1181   1.513       .  S
C1118      C1485   1.517       .  S
C1119      C1120   1.383       .  D
C1119      C1549   1.516       .  S
C1119      C1773   1.519       .  S
C1120      C1133   1.508       .  S
C1120      C1421   1.514       .  S
C1121      C1122   1.382   1_556  D
C1121      C1898   1.519   1_556  S
C1121      C2234   1.523       .  S
C1122      C1533   1.509       .  S
C1122      C1853   1.511       .  S
C1123      C1124   1.375       .  D
C1123      C2365   1.511       .  S
C1123      C2426   1.508       .  S
C1124      C2205   1.511       .  S
C1124      C2269   1.509       .  S
C1125      C1126   1.376       .  D
C1125      C2413   1.511       .  S
C1125      C2477   1.508       .  S
C1126      C1437   1.508       .  S
C1126      C1498   1.514       .  S
C1127      C1128   1.378       .  D
C1127      C2349   1.514       .  S
C1127      C2493   1.510       .  S
C1128      C1821   1.510       .  S
C1128      C1885   1.511       .  S
C1129      C1130   1.405   1_545  A
C1129      C1134   1.410       .  A
C1129      H1136   1.085       .  S
C1130      C1131   1.423       .  A
C1131      C1132   1.406       .  A
C1131      C1138   1.520       .  S
C1132      C1133   1.405   1_565  A
C1132      H1137   1.083       .  S
C1133      C1134   1.427       .  A
C1134      C1135   1.516       .  S
C1135      F1139   1.383       .  S
C1135      F1140   1.372       .  S
C1135      F1141   1.384       .  S
C1138      F1142   1.383       .  S
C1138      F1143   1.383       .  S
C1138      F1144   1.385       .  S
C1145      C1146   1.407       .  A
C1145      C1150   1.404       .  A
C1145      H1152   1.082       .  S
C1146      C1147   1.431   1_455  A
C1147      C1148   1.411       .  A
C1147      C1154   1.514       .  S
C1148      C1149   1.400   1_655  A
C1148      H1153   1.085       .  S
C1149      C1150   1.423       .  A
C1150      C1151   1.524       .  S
C1151      F1155   1.385       .  S
C1151      F1156   1.384       .  S
C1151      F1157   1.382       .  S
C1154      F1158   1.385       .  S
C1154      F1159   1.367       .  S
C1154      F1160   1.383       .  S
C1161      C1162   1.399   1_545  A
C1161      C1166   1.405       .  A
C1161      H1168   1.081       .  S
C1162      C1163   1.421       .  A
C1163      C1164   1.414       .  A
C1163      C1170   1.520       .  S
C1164      C1165   1.412   1_565  A
C1164      H1169   1.075       .  S
C1165      C1166   1.429       .  A
C1166      C1167   1.510       .  S
C1167      F1171   1.385       .  S
C1167      F1172   1.368       .  S
C1167      F1173   1.375       .  S
C1170      F1174   1.383       .  S
C1170      F1175   1.383       .  S
C1170      F1176   1.385       .  S
C1177      C1178   1.402       .  A
C1177      C1182   1.401       .  A
C1177      H1184   1.081       .  S
C1178      C1179   1.416   1_455  A
C1179      C1180   1.413       .  A
C1179      C1186   1.516       .  S
C1180      C1181   1.412   1_655  A
C1180      H1185   1.080       .  S
C1181      C1182   1.424       .  A
C1182      C1183   1.521       .  S
C1183      F1187   1.385       .  S
C1183      F1188   1.374       .  S
C1183      F1189   1.376       .  S
C1186      F1190   1.382       .  S
C1186      F1191   1.383       .  S
C1186      F1192   1.385       .  S
C1193      C1194   1.407   1_545  A
C1193      C1198   1.406       .  A
C1193      H1200   1.081       .  S
C1194      C1195   1.422       .  A
C1195      C1196   1.414       .  A
C1195      C1202   1.517       .  S
C1196      C1197   1.408   1_565  A
C1196      H1201   1.083       .  S
C1197      C1198   1.418       .  A
C1198      C1199   1.517       .  S
C1199      F1203   1.385       .  S
C1199      F1204   1.380       .  S
C1199      F1205   1.379       .  S
C1202      F1206   1.383       .  S
C1202      F1207   1.382       .  S
C1202      F1208   1.385       .  S
C1209      C1210   1.404       .  A
C1209      C1214   1.402       .  A
C1209      H1216   1.084       .  S
C1210      C1211   1.427   1_455  A
C1211      C1212   1.414       .  A
C1211      C1218   1.520       .  S
C1212      C1213   1.406   1_655  A
C1212      H1217   1.083       .  S
C1213      C1214   1.422       .  A
C1214      C1215   1.515       .  S
C1215      F1219   1.385       .  S
C1215      F1220   1.370       .  S
C1215      F1221   1.382       .  S
C1218      F1222   1.383       .  S
C1218      F1223   1.384       .  S
C1218      F1224   1.385       .  S
C1225      C1226   1.413   1_545  A
C1225      C1230   1.408       .  A
C1225      H1232   1.069       .  S
C1226      C1227   1.428       .  A
C1227      C1228   1.403       .  A
C1227      C1234   1.519       .  S
C1228      C1229   1.401       .  A
C1228      H1233   1.084       .  S
C1229      C1230   1.410   1_565  A
C1230      C1231   1.518       .  S
C1231      F1235   1.385       .  S
C1231      F1236   1.383       .  S
C1231      F1237   1.382       .  S
C1234      F1238   1.370       .  S
C1234      F1239   1.383       .  S
C1234      F1240   1.385       .  S
C1241      C1242   1.401       .  A
C1241      C1246   1.401       .  A
C1241      H1248   1.082       .  S
C1242      C1243   1.422   1_655  A
C1243      C1244   1.414       .  A
C1243      C1250   1.518       .  S
C1244      C1245   1.409   1_455  A
C1244      H1249   1.084       .  S
C1245      C1246   1.427       .  A
C1246      C1247   1.525       .  S
C1247      F1251   1.385       .  S
C1247      F1252   1.383       .  S
C1247      F1253   1.384       .  S
C1250      F1254   1.384       .  S
C1250      F1255   1.378       .  S
C1250      F1256   1.383       .  S
C1257      C1258   1.404       .  A
C1257      C1262   1.406       .  A
C1257      H1264   1.083       .  S
C1258      C1259   1.430   1_655  A
C1259      C1260   1.409       .  A
C1259      C1266   1.514       .  S
C1260      C1261   1.400   1_455  A
C1260      H1265   1.085       .  S
C1261      C1262   1.425       .  A
C1262      C1263   1.523       .  S
C1263      F1267   1.385       .  S
C1263      F1268   1.384       .  S
C1263      F1269   1.383       .  S
C1266      F1270   1.365       .  S
C1266      F1271   1.383       .  S
C1266      F1272   1.385       .  S
C1273      C1274   1.404       .  A
C1273      C1278   1.400       .  A
C1273      H1280   1.084       .  S
C1274      C1275   1.417       .  A
C1275      C1276   1.414       .  A
C1275      C1282   1.515       .  S
C1276      C1277   1.410       .  A
C1276      H1281   1.081       .  S
C1277      C1278   1.418       .  A
C1278      C1279   1.516       .  S
C1279      F1283   1.385       .  S
C1279      F1284   1.383       .  S
C1279      F1285   1.382       .  S
C1282      F1286   1.382       .  S
C1282      F1287   1.384       .  S
C1282      F1288   1.385       .  S
C1289      C1290   1.404       .  A
C1289      C1294   1.406       .  A
C1289      H1296   1.073       .  S
C1290      C1291   1.421       .  A
C1291      C1292   1.411       .  A
C1291      C1298   1.510       .  S
C1292      C1293   1.408       .  A
C1292      H1297   1.084       .  S
C1293      C1294   1.424       .  A
C1294      C1295   1.523       .  S
C1295      F1299   1.385       .  S
C1295      F1300   1.383       .  S
C1295      F1301   1.383       .  S
C1298      F1302   1.382       .  S
C1298      F1303   1.372       .  S
C1298      F1304   1.384       .  S
C1305      C1306   1.402   1_455  A
C1305      C1310   1.403       .  A
C1305      H1312   1.079       .  S
C1306      C1307   1.423       .  A
C1307      C1308   1.407       .  A
C1307      C1314   1.515       .  S
C1308      C1309   1.404   1_655  A
C1308      H1313   1.085       .  S
C1309      C1310   1.426       .  A
C1310      C1311   1.524       .  S
C1311      F1315   1.385       .  S
C1311      F1316   1.384       .  S
C1311      F1317   1.383       .  S
C1314      F1318   1.384       .  S
C1314      F1319   1.372       .  S
C1314      F1320   1.383       .  S
C1321      C1322   1.400   1_545  A
C1321      C1326   1.407       .  A
C1321      H1328   1.085       .  S
C1322      C1323   1.419       .  A
C1323      C1324   1.408       .  A
C1323      C1330   1.523       .  S
C1324      C1325   1.412   1_565  A
C1324      H1329   1.067       .  S
C1325      C1326   1.431       .  A
C1326      C1327   1.509       .  S
C1327      F1331   1.384       .  S
C1327      F1332   1.357       .  S
C1327      F1333   1.384       .  S
C1330      F1334   1.383       .  S
C1330      F1335   1.383       .  S
C1330      F1336   1.385       .  S
C1337      C1338   1.406       .  A
C1337      C1342   1.412       .  A
C1337      H1344   1.084       .  S
C1338      C1339   1.426       .  A
C1339      C1340   1.401       .  A
C1339      C1346   1.526       .  S
C1340      C1341   1.402       .  A
C1340      H1345   1.076       .  S
C1341      C1342   1.423       .  A
C1342      C1343   1.515       .  S
C1343      F1347   1.384       .  S
C1343      F1348   1.377       .  S
C1343      F1349   1.382       .  S
C1346      F1350   1.383       .  S
C1346      F1351   1.384       .  S
C1346      F1352   1.385       .  S
C1353      C1354   1.404       .  A
C1353      C1358   1.402       .  A
C1353      H1360   1.084       .  S
C1354      C1355   1.425       .  A
C1355      C1356   1.411       .  A
C1355      C1362   1.521       .  S
C1356      C1357   1.406       .  A
C1356      H1361   1.078       .  S
C1357      C1358   1.421       .  A
C1358      C1359   1.514       .  S
C1359      F1363   1.383       .  S
C1359      F1364   1.384       .  S
C1359      F1365   1.369       .  S
C1362      F1366   1.383       .  S
C1362      F1367   1.384       .  S
C1362      F1368   1.385       .  S
C1369      C1370   1.403   1_545  A
C1369      C1374   1.413       .  A
C1369      H1376   1.085       .  S
C1370      C1371   1.423       .  A
C1371      C1372   1.403       .  A
C1371      C1378   1.524       .  S
C1372      C1373   1.406       .  A
C1372      H1377   1.080       .  S
C1373      C1374   1.430   1_565  A
C1374      C1375   1.515       .  S
C1375      F1379   1.384       .  S
C1375      F1380   1.371       .  S
C1375      F1381   1.383       .  S
C1378      F1382   1.384       .  S
C1378      F1383   1.382       .  S
C1378      F1384   1.385       .  S
C1385      C1386   1.401       .  A
C1385      C1390   1.399       .  A
C1385      H1392   1.084       .  S
C1386      C1387   1.418       .  A
C1387      C1388   1.418       .  A
C1387      C1394   1.516       .  S
C1388      C1389   1.412       .  A
C1388      H1393   1.081       .  S
C1389      C1390   1.424       .  A
C1390      C1391   1.521       .  S
C1391      F1395   1.385       .  S
C1391      F1396   1.383       .  S
C1391      F1397   1.376       .  S
C1394      F1398   1.382       .  S
C1394      F1399   1.383       .  S
C1394      F1400   1.384       .  S
C1401      C1402   1.403   1_545  A
C1401      C1406   1.400       .  A
C1401      H1408   1.084       .  S
C1402      C1403   1.414       .  A
C1403      C1404   1.411       .  A
C1403      C1410   1.517       .  S
C1404      C1405   1.410       .  A
C1404      H1409   1.077       .  S
C1405      C1406   1.420   1_565  A
C1406      C1407   1.519       .  S
C1407      F1411   1.385       .  S
C1407      F1412   1.379       .  S
C1407      F1413   1.382       .  S
C1410      F1414   1.383       .  S
C1410      F1415   1.382       .  S
C1410      F1416   1.385       .  S
C1417      C1418   1.402   1_545  A
C1417      C1422   1.400       .  A
C1417      H1424   1.081       .  S
C1418      C1419   1.416       .  A
C1419      C1420   1.418       .  A
C1419      C1426   1.515       .  S
C1420      C1421   1.413   1_565  A
C1420      H1425   1.082       .  S
C1421      C1422   1.427       .  A
C1422      C1423   1.525       .  S
C1423      F1427   1.385       .  S
C1423      F1428   1.379       .  S
C1423      F1429   1.375       .  S
C1426      F1430   1.382       .  S
C1426      F1431   1.383       .  S
C1426      F1432   1.385       .  S
C1433      C1434   1.406       .  A
C1433      C1438   1.402       .  A
C1433      H1440   1.084       .  S
C1434      C1435   1.417       .  A
C1435      C1436   1.411       .  A
C1435      C1442   1.516       .  S
C1436      C1437   1.409       .  A
C1436      H1441   1.077       .  S
C1437      C1438   1.417       .  A
C1438      C1439   1.517       .  S
C1439      F1443   1.384       .  S
C1439      F1444   1.381       .  S
C1439      F1445   1.383       .  S
C1442      F1446   1.383       .  S
C1442      F1447   1.382       .  S
C1442      F1448   1.385       .  S
C1449      C1450   1.407       .  A
C1449      C1454   1.409       .  A
C1449      H1456   1.078       .  S
C1450      C1451   1.423       .  A
C1451      C1452   1.409       .  A
C1451      C1458   1.511       .  S
C1452      C1453   1.406       .  A
C1452      H1457   1.084       .  S
C1453      C1454   1.424       .  A
C1454      C1455   1.521       .  S
C1455      F1459   1.385       .  S
C1455      F1460   1.383       .  S
C1455      F1461   1.383       .  S
C1458      F1462   1.382       .  S
C1458      F1463   1.373       .  S
C1458      F1464   1.385       .  S
C1465      C1466   1.408   1_655  A
C1465      C1470   1.403       .  A
C1465      H1472   1.077       .  S
C1466      C1467   1.429       .  A
C1467      C1468   1.413       .  A
C1467      C1474   1.513       .  S
C1468      C1469   1.403       .  A
C1468      H1473   1.085       .  S
C1469      C1470   1.422   1_455  A
C1470      C1471   1.524       .  S
C1471      F1475   1.385       .  S
C1471      F1476   1.383       .  S
C1471      F1477   1.384       .  S
C1474      F1478   1.383       .  S
C1474      F1479   1.366       .  S
C1474      F1480   1.384       .  S
C1481      C1482   1.399   1_655  A
C1481      C1486   1.400       .  A
C1481      H1488   1.083       .  S
C1482      C1483   1.412       .  A
C1483      C1484   1.414       .  A
C1483      C1490   1.515       .  S
C1484      C1485   1.415       .  A
C1484      H1489   1.078       .  S
C1485      C1486   1.428   1_455  A
C1486      C1487   1.519       .  S
C1487      F1491   1.386       .  S
C1487      F1492   1.381       .  S
C1487      F1493   1.374       .  S
C1490      F1494   1.382       .  S
C1490      F1495   1.383       .  S
C1490      F1496   1.385       .  S
C1497      C1498   1.414       .  A
C1497      C1502   1.413       .  A
C1497      H1504   1.077       .  S
C1498      C1499   1.426       .  A
C1499      C1500   1.400       .  A
C1499      C1506   1.521       .  S
C1500      C1501   1.400       .  A
C1500      H1505   1.084       .  S
C1501      C1502   1.411       .  A
C1502      C1503   1.515       .  S
C1503      F1507   1.385       .  S
C1503      F1508   1.384       .  S
C1503      F1509   1.382       .  S
C1506      F1510   1.385       .  S
C1506      F1511   1.378       .  S
C1506      F1512   1.381       .  S
C1513      C1514   1.401       .  A
C1513      C1518   1.400       .  A
C1513      H1520   1.085       .  S
C1514      C1515   1.416   1_556  A
C1515      C1516   1.417       .  A
C1515      C1522   1.515       .  S
C1516      C1517   1.414   1_554  A
C1516      H1521   1.082       .  S
C1517      C1518   1.426       .  A
C1518      C1519   1.521       .  S
C1519      F1523   1.385       .  S
C1519      F1524   1.374       .  S
C1519      F1525   1.383       .  S
C1522      F1526   1.383       .  S
C1522      F1527   1.382       .  S
C1522      F1528   1.385       .  S
C1529      C1530   1.407   1_554  A
C1529      C1534   1.414       .  A
C1529      H1536   1.084       .  S
C1530      C1531   1.422       .  A
C1531      C1532   1.401       .  A
C1531      C1538   1.524       .  S
C1532      C1533   1.407   1_556  A
C1532      H1537   1.077       .  S
C1533      C1534   1.426       .  A
C1534      C1535   1.515       .  S
C1535      F1539   1.384       .  S
C1535      F1540   1.374       .  S
C1535      F1541   1.383       .  S
C1538      F1542   1.384       .  S
C1538      F1543   1.383       .  S
C1538      F1544   1.385       .  S
C1545      C1546   1.403       .  A
C1545      C1550   1.399       .  A
C1545      H1552   1.084       .  S
C1546      C1547   1.417   1_545  A
C1547      C1548   1.415       .  A
C1547      C1554   1.516       .  S
C1548      C1549   1.414   1_565  A
C1548      H1553   1.081       .  S
C1549      C1550   1.424       .  A
C1550      C1551   1.518       .  S
C1551      F1555   1.383       .  S
C1551      F1556   1.369       .  S
C1551      F1557   1.384       .  S
C1554      F1558   1.382       .  S
C1554      F1559   1.383       .  S
C1554      F1560   1.385       .  S
C1561      C1562   1.404       .  A
C1561      C1566   1.404       .  A
C1561      H1568   1.084       .  S
C1562      C1563   1.416   1_565  A
C1563      C1564   1.406       .  A
C1563      C1570   1.519       .  S
C1564      C1565   1.407   1_545  A
C1564      H1569   1.073       .  S
C1565      C1566   1.424       .  A
C1566      C1567   1.511       .  S
C1567      F1571   1.385       .  S
C1567      F1572   1.383       .  S
C1567      F1573   1.369       .  S
C1570      F1574   1.382       .  S
C1570      F1575   1.384       .  S
C1570      F1576   1.385       .  S
C1577      C1578   1.411   1_554  A
C1577      C1582   1.413       .  A
C1577      H1584   1.084       .  S
C1578      C1579   1.423       .  A
C1579      C1580   1.399       .  A
C1579      C1586   1.524       .  S
C1580      C1581   1.401       .  A
C1580      H1585   1.074       .  S
C1581      C1582   1.421   1_556  A
C1582      C1583   1.517       .  S
C1583      F1587   1.383       .  S
C1583      F1588   1.384       .  S
C1583      F1589   1.378       .  S
C1586      F1590   1.383       .  S
C1586      F1591   1.384       .  S
C1586      F1592   1.385       .  S
C1593      C1594   1.400   1_554  A
C1593      C1598   1.407       .  A
C1593      H1600   1.085       .  S
C1594      C1595   1.427       .  A
C1595      C1596   1.405       .  A
C1595      C1602   1.523       .  S
C1596      C1597   1.403       .  A
C1596      H1601   1.083       .  S
C1597      C1598   1.429   1_556  A
C1598      C1599   1.514       .  S
C1599      F1603   1.384       .  S
C1599      F1604   1.383       .  S
C1599      F1605   1.365       .  S
C1602      F1606   1.383       .  S
C1602      F1607   1.383       .  S
C1602      F1608   1.385       .  S
C1609      C1610   1.403   1_545  A
C1609      C1614   1.399       .  A
C1609      H1616   1.084       .  S
C1610      C1611   1.416       .  A
C1611      C1612   1.413       .  A
C1611      C1618   1.518       .  S
C1612      C1613   1.412   1_565  A
C1612      H1617   1.072       .  S
C1613      C1614   1.426       .  A
C1614      C1615   1.517       .  S
C1615      F1619   1.386       .  S
C1615      F1620   1.368       .  S
C1615      F1621   1.383       .  S
C1618      F1622   1.383       .  S
C1618      F1623   1.383       .  S
C1618      F1624   1.385       .  S
C1625      C1626   1.405       .  A
C1625      C1630   1.403       .  A
C1625      H1632   1.084       .  S
C1626      C1627   1.418   1_565  A
C1627      C1628   1.413       .  A
C1627      C1634   1.516       .  S
C1628      C1629   1.409   1_545  A
C1628      H1633   1.080       .  S
C1629      C1630   1.419       .  A
C1630      C1631   1.516       .  S
C1631      F1635   1.385       .  S
C1631      F1636   1.382       .  S
C1631      F1637   1.383       .  S
C1634      F1638   1.383       .  S
C1634      F1639   1.382       .  S
C1634      F1640   1.385       .  S
C1641      C1642   1.416       .  A
C1641      C1646   1.394       .  A
C1641      H1648   1.075       .  S
C1642      C1643   1.439       .  A
C1643      C1644   1.417       .  A
C1643      C1650   1.518       .  S
C1644      C1645   1.397       .  A
C1644      H1649   1.085       .  S
C1645      C1646   1.411       .  A
C1646      C1647   1.521       .  S
C1647      F1651   1.385       .  S
C1647      F1652   1.381       .  S
C1647      F1653   1.380       .  S
C1650      F1654   1.379       .  S
C1650      F1655   1.370       .  S
C1650      F1656   1.387       .  S
C1657      C1658   1.402       .  A
C1657      C1662   1.397       .  A
C1657      H1664   1.084       .  S
C1658      C1659   1.415       .  A
C1659      C1660   1.414       .  A
C1659      C1666   1.516       .  S
C1660      C1661   1.412       .  A
C1660      H1665   1.080       .  S
C1661      C1662   1.424       .  A
C1662      C1663   1.523       .  S
C1663      F1667   1.385       .  S
C1663      F1668   1.383       .  S
C1663      F1669   1.374       .  S
C1666      F1670   1.383       .  S
C1666      F1671   1.383       .  S
C1666      F1672   1.384       .  S
C1673      C1674   1.400   1_545  A
C1673      C1678   1.399       .  A
C1673      H1680   1.084       .  S
C1674      C1675   1.415       .  A
C1675      C1676   1.417       .  A
C1675      C1682   1.515       .  S
C1676      C1677   1.414       .  A
C1676      H1681   1.081       .  S
C1677      C1678   1.425   1_565  A
C1678      C1679   1.522       .  S
C1679      F1683   1.385       .  S
C1679      F1684   1.376       .  S
C1679      F1685   1.382       .  S
C1682      F1686   1.383       .  S
C1682      F1687   1.382       .  S
C1682      F1688   1.384       .  S
C1689      C1690   1.404   1_545  A
C1689      C1694   1.411       .  A
C1689      H1696   1.082       .  S
C1690      C1691   1.422       .  A
C1691      C1692   1.407       .  A
C1691      C1698   1.521       .  S
C1692      C1693   1.404       .  A
C1692      H1697   1.074       .  S
C1693      C1694   1.427   1_565  A
C1694      C1695   1.518       .  S
C1695      F1699   1.385       .  S
C1695      F1700   1.371       .  S
C1695      F1701   1.376       .  S
C1698      F1702   1.383       .  S
C1698      F1703   1.384       .  S
C1698      F1704   1.385       .  S
C1705      C1706   1.414   1_556  A
C1705      C1710   1.412       .  A
C1705      H1712   1.078       .  S
C1706      C1707   1.426       .  A
C1707      C1708   1.400       .  A
C1707      C1714   1.521       .  S
C1708      C1709   1.401       .  A
C1708      H1713   1.084       .  S
C1709      C1710   1.413   1_554  A
C1710      C1711   1.517       .  S
C1711      F1715   1.385       .  S
C1711      F1716   1.383       .  S
C1711      F1717   1.382       .  S
C1714      F1718   1.373       .  S
C1714      F1719   1.383       .  S
C1714      F1720   1.385       .  S
C1721      C1722   1.405   1_554  A
C1721      C1726   1.401       .  A
C1721      H1728   1.082       .  S
C1722      C1723   1.429       .  A
C1723      C1724   1.410       .  A
C1723      C1730   1.515       .  S
C1724      C1725   1.401   1_556  A
C1724      H1729   1.085       .  S
C1725      C1726   1.423       .  A
C1726      C1727   1.524       .  S
C1727      F1731   1.385       .  S
C1727      F1732   1.383       .  S
C1727      F1733   1.383       .  S
C1730      F1734   1.383       .  S
C1730      F1735   1.367       .  S
C1730      F1736   1.384       .  S
C1737      C1738   1.407       .  A
C1737      C1742   1.408       .  A
C1737      H1744   1.082       .  S
C1738      C1739   1.425       .  A
C1739      C1740   1.412       .  A
C1739      C1746   1.521       .  S
C1740      C1741   1.410       .  A
C1740      H1745   1.082       .  S
C1741      C1742   1.419       .  A
C1742      C1743   1.513       .  S
C1743      F1747   1.385       .  S
C1743      F1748   1.379       .  S
C1743      F1749   1.381       .  S
C1746      F1750   1.382       .  S
C1746      F1751   1.384       .  S
C1746      F1752   1.385       .  S
C1753      C1754   1.407       .  A
C1753      C1758   1.407       .  A
C1753      H1760   1.084       .  S
C1754      C1755   1.421       .  A
C1755      C1756   1.408       .  A
C1755      C1762   1.518       .  S
C1756      C1757   1.406       .  A
C1756      H1761   1.080       .  S
C1757      C1758   1.425       .  A
C1758      C1759   1.522       .  S
C1759      F1763   1.384       .  S
C1759      F1764   1.382       .  S
C1759      F1765   1.383       .  S
C1762      F1766   1.383       .  S
C1762      F1767   1.383       .  S
C1762      F1768   1.385       .  S
C1769      C1770   1.401   1_545  A
C1769      C1774   1.412       .  A
C1769      H1776   1.085       .  S
C1770      C1771   1.420       .  A
C1771      C1772   1.404       .  A
C1771      C1778   1.523       .  S
C1772      C1773   1.409   1_565  A
C1772      H1777   1.081       .  S
C1773      C1774   1.432       .  A
C1774      C1775   1.516       .  S
C1775      F1779   1.384       .  S
C1775      F1780   1.383       .  S
C1775      F1781   1.368       .  S
C1778      F1782   1.382       .  S
C1778      F1783   1.384       .  S
C1778      F1784   1.385       .  S
C1785      C1786   1.403       .  A
C1785      C1790   1.403       .  A
C1785      H1792   1.068       .  S
C1786      C1787   1.430   1_545  A
C1787      C1788   1.414       .  A
C1787      C1794   1.513       .  S
C1788      C1789   1.405   1_565  A
C1788      H1793   1.085       .  S
C1789      C1790   1.423       .  A
C1790      C1791   1.526       .  S
C1791      F1795   1.385       .  S
C1791      F1796   1.383       .  S
C1791      F1797   1.384       .  S
C1794      F1798   1.384       .  S
C1794      F1799   1.367       .  S
C1794      F1800   1.383       .  S
C1801      C1802   1.399       .  A
C1801      C1806   1.423       .  A
C1801      H1808   1.085       .  S
C1802      C1803   1.406       .  A
C1803      C1804   1.395       .  A
C1803      C1810   1.524       .  S
C1804      C1805   1.419       .  A
C1804      H1809   1.068       .  S
C1805      C1806   1.448       .  A
C1806      C1807   1.515       .  S
C1807      F1811   1.384       .  S
C1807      F1812   1.362       .  S
C1807      F1813   1.383       .  S
C1810      F1814   1.382       .  S
C1810      F1815   1.380       .  S
C1810      F1816   1.386       .  S
C1817      C1818   1.401       .  A
C1817      C1822   1.400       .  A
C1817      H1824   1.084       .  S
C1818      C1819   1.416       .  A
C1819      C1820   1.415       .  A
C1819      C1826   1.516       .  S
C1820      C1821   1.412       .  A
C1820      H1825   1.081       .  S
C1821      C1822   1.425       .  A
C1822      C1823   1.520       .  S
C1823      F1827   1.385       .  S
C1823      F1828   1.383       .  S
C1823      F1829   1.375       .  S
C1826      F1830   1.382       .  S
C1826      F1831   1.383       .  S
C1826      F1832   1.385       .  S
C1833      C1834   1.408       .  A
C1833      C1838   1.413       .  A
C1833      H1840   1.082       .  S
C1834      C1835   1.421   1_556  A
C1835      C1836   1.405       .  A
C1835      C1842   1.519       .  S
C1836      C1837   1.403   1_554  A
C1836      H1841   1.078       .  S
C1837      C1838   1.421       .  A
C1838      C1839   1.520       .  S
C1839      F1843   1.384       .  S
C1839      F1844   1.375       .  S
C1839      F1845   1.380       .  S
C1842      F1846   1.382       .  S
C1842      F1847   1.384       .  S
C1842      F1848   1.385       .  S
C1849      C1850   1.405   1_554  A
C1849      C1854   1.402       .  A
C1849      H1856   1.084       .  S
C1850      C1851   1.425       .  A
C1851      C1852   1.412       .  A
C1851      C1858   1.519       .  S
C1852      C1853   1.406   1_556  A
C1852      H1857   1.081       .  S
C1853      C1854   1.420       .  A
C1854      C1855   1.514       .  S
C1855      F1859   1.383       .  S
C1855      F1860   1.371       .  S
C1855      F1861   1.384       .  S
C1858      F1862   1.383       .  S
C1858      F1863   1.383       .  S
C1858      F1864   1.385       .  S
C1865      C1866   1.405       .  A
C1865      C1870   1.402       .  A
C1865      H1872   1.084       .  S
C1866      C1867   1.423       .  A
C1867      C1868   1.413       .  A
C1867      C1874   1.517       .  S
C1868      C1869   1.406       .  A
C1868      H1873   1.081       .  S
C1869      C1870   1.417       .  A
C1870      C1871   1.517       .  S
C1871      F1875   1.385       .  S
C1871      F1876   1.382       .  S
C1871      F1877   1.380       .  S
C1874      F1878   1.383       .  S
C1874      F1879   1.383       .  S
C1874      F1880   1.385       .  S
C1881      C1882   1.401       .  A
C1881      C1886   1.399       .  A
C1881      H1888   1.084       .  S
C1882      C1883   1.416       .  A
C1883      C1884   1.415       .  A
C1883      C1890   1.516       .  S
C1884      C1885   1.412       .  A
C1884      H1889   1.081       .  S
C1885      C1886   1.426       .  A
C1886      C1887   1.521       .  S
C1887      F1891   1.383       .  S
C1887      F1892   1.374       .  S
C1887      F1893   1.385       .  S
C1890      F1894   1.382       .  S
C1890      F1895   1.383       .  S
C1890      F1896   1.385       .  S
C1897      C1898   1.408       .  A
C1897      C1902   1.400       .  A
C1897      H1904   1.082       .  S
C1898      C1899   1.436   1_554  A
C1899      C1900   1.412       .  A
C1899      C1906   1.513       .  S
C1900      C1901   1.395   1_556  A
C1900      H1905   1.084       .  S
C1901      C1902   1.418       .  A
C1902      C1903   1.523       .  S
C1903      F1907   1.385       .  S
C1903      F1908   1.382       .  S
C1903      F1909   1.383       .  S
C1906      F1910   1.381       .  S
C1906      F1911   1.373       .  S
C1906      F1912   1.385       .  S
C1913      C1914   1.410   1_554  A
C1913      C1918   1.404       .  A
C1913      H1920   1.080       .  S
C1914      C1915   1.436       .  A
C1915      C1916   1.413       .  A
C1915      C1922   1.517       .  S
C1916      C1917   1.396   1_556  A
C1916      H1921   1.084       .  S
C1917      C1918   1.419       .  A
C1918      C1919   1.524       .  S
C1919      F1923   1.385       .  S
C1919      F1924   1.384       .  S
C1919      F1925   1.382       .  S
C1922      F1926   1.371       .  S
C1922      F1927   1.380       .  S
C1922      F1928   1.385       .  S
C1929      C1930   1.406       .  A
C1929      C1934   1.414       .  A
C1929      H1936   1.081       .  S
C1930      C1931   1.420   1_455  A
C1931      C1932   1.399       .  A
C1931      C1938   1.515       .  S
C1932      C1933   1.403   1_655  A
C1932      H1937   1.083       .  S
C1933      C1934   1.422       .  A
C1934      C1935   1.517       .  S
C1935      F1939   1.385       .  S
C1935      F1940   1.383       .  S
C1935      F1941   1.383       .  S
C1938      F1942   1.382       .  S
C1938      F1943   1.372       .  S
C1938      F1944   1.385       .  S
C1945      C1946   1.401   1_655  A
C1945      C1950   1.404       .  A
C1945      H1952   1.082       .  S
C1946      C1947   1.409       .  A
C1947      C1948   1.411       .  A
C1947      C1954   1.516       .  S
C1948      C1949   1.415   1_455  A
C1948      H1953   1.070       .  S
C1949      C1950   1.429       .  A
C1950      C1951   1.518       .  S
C1951      F1955   1.386       .  S
C1951      F1956   1.377       .  S
C1951      F1957   1.378       .  S
C1954      F1958   1.384       .  S
C1954      F1959   1.381       .  S
C1954      F1960   1.385       .  S
C1961      C1962   1.404   1_556  A
C1961      C1966   1.413       .  A
C1961      H1968   1.084       .  S
C1962      C1963   1.424       .  A
C1963      C1964   1.402       .  A
C1963      C1970   1.525       .  S
C1964      C1965   1.403       .  A
C1964      H1969   1.075       .  S
C1965      C1966   1.427   1_554  A
C1966      C1967   1.514       .  S
C1967      F1971   1.385       .  S
C1967      F1972   1.372       .  S
C1967      F1973   1.382       .  S
C1970      F1974   1.384       .  S
C1970      F1975   1.382       .  S
C1970      F1976   1.385       .  S
C1977      C1978   1.405   1_655  A
C1977      C1982   1.405       .  A
C1977      H1984   1.081       .  S
C1978      C1979   1.429       .  A
C1979      C1980   1.410       .  A
C1979      C1986   1.514       .  S
C1980      C1981   1.402   1_455  A
C1980      H1985   1.085       .  S
C1981      C1982   1.426       .  A
C1982      C1983   1.524       .  S
C1983      F1987   1.385       .  S
C1983      F1988   1.384       .  S
C1983      F1989   1.383       .  S
C1986      F1990   1.384       .  S
C1986      F1991   1.366       .  S
C1986      F1992   1.383       .  S
C1993      C1994   1.400   1_556  A
C1993      C1998   1.407       .  A
C1993      H2000   1.085       .  S
C1994      C1995   1.427       .  A
C1995      C1996   1.403       .  A
C1995      C2002   1.523       .  S
C1996      C1997   1.402   1_554  A
C1996      H2001   1.083       .  S
C1997      C1998   1.429       .  A
C1998      C1999   1.515       .  S
C1999      F2003   1.385       .  S
C1999      F2004   1.383       .  S
C1999      F2005   1.366       .  S
C2002      F2006   1.383       .  S
C2002      F2007   1.383       .  S
C2002      F2008   1.385       .  S
C2009      C2010   1.407   1_455  A
C2009      C2014   1.398       .  A
C2009      H2016   1.082       .  S
C2010      C2011   1.430       .  A
C2011      C2012   1.409       .  A
C2011      C2018   1.517       .  S
C2012      C2013   1.399   1_655  A
C2012      H2017   1.085       .  S
C2013      C2014   1.420       .  A
C2014      C2015   1.525       .  S
C2015      F2019   1.385       .  S
C2015      F2020   1.383       .  S
C2015      F2021   1.383       .  S
C2018      F2022   1.371       .  S
C2018      F2023   1.383       .  S
C2018      F2024   1.385       .  S
C2025      C2026   1.404       .  A
C2025      C2030   1.412       .  A
C2025      H2032   1.073       .  S
C2026      C2027   1.427       .  A
C2027      C2028   1.402       .  A
C2027      C2034   1.517       .  S
C2028      C2029   1.402       .  A
C2028      H2033   1.084       .  S
C2029      C2030   1.426       .  A
C2030      C2031   1.521       .  S
C2031      F2035   1.385       .  S
C2031      F2036   1.384       .  S
C2031      F2037   1.383       .  S
C2034      F2038   1.383       .  S
C2034      F2039   1.370       .  S
C2034      F2040   1.384       .  S
C2041      C2042   1.404       .  A
C2041      C2046   1.404       .  A
C2041      H2048   1.081       .  S
C2042      C2043   1.426       .  A
C2043      C2044   1.413       .  A
C2043      C2050   1.519       .  S
C2044      C2045   1.406       .  A
C2044      H2049   1.082       .  S
C2045      C2046   1.419       .  A
C2046      C2047   1.515       .  S
C2047      F2051   1.385       .  S
C2047      F2052   1.378       .  S
C2047      F2053   1.377       .  S
C2050      F2054   1.383       .  S
C2050      F2055   1.383       .  S
C2050      F2056   1.385       .  S
C2057      C2058   1.402   1_655  A
C2057      C2062   1.411       .  A
C2057      H2064   1.085       .  S
C2058      C2059   1.422       .  A
C2059      C2060   1.401       .  A
C2059      C2066   1.523       .  S
C2060      C2061   1.405       .  A
C2060      H2065   1.083       .  S
C2061      C2062   1.429   1_455  A
C2062      C2063   1.516       .  S
C2063      F2067   1.385       .  S
C2063      F2068   1.371       .  S
C2063      F2069   1.383       .  S
C2066      F2070   1.383       .  S
C2066      F2071   1.384       .  S
C2066      F2072   1.385       .  S
C2073      C2074   1.415   1_455  A
C2073      C2078   1.415       .  A
C2073      H2080   1.081       .  S
C2074      C2075   1.426       .  A
C2075      C2076   1.400       .  A
C2075      C2082   1.519       .  S
C2076      C2077   1.401       .  A
C2076      H2081   1.083       .  S
C2077      C2078   1.415   1_655  A
C2078      C2079   1.516       .  S
C2079      F2083   1.385       .  S
C2079      F2084   1.383       .  S
C2079      F2085   1.382       .  S
C2082      F2086   1.369       .  S
C2082      F2087   1.383       .  S
C2082      F2088   1.385       .  S
C2089      C2090   1.400       .  A
C2089      C2094   1.404       .  A
C2089      H2096   1.082       .  S
C2090      C2091   1.407       .  A
C2091      C2092   1.409       .  A
C2091      C2098   1.516       .  S
C2092      C2093   1.415       .  A
C2092      H2097   1.069       .  S
C2093      C2094   1.431       .  A
C2094      C2095   1.519       .  S
C2095      F2099   1.385       .  S
C2095      F2100   1.378       .  S
C2095      F2101   1.376       .  S
C2098      F2102   1.381       .  S
C2098      F2103   1.384       .  S
C2098      F2104   1.384       .  S
C2105      C2106   1.405       .  A
C2105      C2110   1.412       .  A
C2105      H2112   1.084       .  S
C2106      C2107   1.427       .  A
C2107      C2108   1.406       .  A
C2107      C2114   1.523       .  S
C2108      C2109   1.404       .  A
C2108      H2113   1.080       .  S
C2109      C2110   1.425       .  A
C2110      C2111   1.515       .  S
C2111      F2115   1.384       .  S
C2111      F2116   1.372       .  S
C2111      F2117   1.383       .  S
C2114      F2118   1.383       .  S
C2114      F2119   1.383       .  S
C2114      F2120   1.385       .  S
C2121      C2122   1.403       .  A
C2121      C2126   1.397       .  A
C2121      H2128   1.084       .  S
C2122      C2123   1.416   1_556  A
C2123      C2124   1.413       .  A
C2123      C2130   1.517       .  S
C2124      C2125   1.414   1_554  A
C2124      H2129   1.080       .  S
C2125      C2126   1.422       .  A
C2126      C2127   1.515       .  S
C2127      F2131   1.384       .  S
C2127      F2132   1.365       .  S
C2127      F2133   1.383       .  S
C2130      F2134   1.383       .  S
C2130      F2135   1.383       .  S
C2130      F2136   1.385       .  S
C2137      C2138   1.399   1_554  A
C2137      C2142   1.411       .  A
C2137      H2144   1.085       .  S
C2138      C2139   1.422       .  A
C2139      C2140   1.401       .  A
C2139      C2146   1.523       .  S
C2140      C2141   1.406       .  A
C2140      H2145   1.082       .  S
C2141      C2142   1.432   1_556  A
C2142      C2143   1.514       .  S
C2143      F2147   1.383       .  S
C2143      F2148   1.367       .  S
C2143      F2149   1.385       .  S
C2146      F2150   1.382       .  S
C2146      F2151   1.383       .  S
C2146      F2152   1.385       .  S
C2153      C2154   1.403       .  A
C2153      C2158   1.400       .  A
C2153      H2160   1.083       .  S
C2154      C2155   1.429       .  A
C2155      C2156   1.410       .  A
C2155      C2162   1.515       .  S
C2156      C2157   1.401       .  A
C2156      H2161   1.085       .  S
C2157      C2158   1.424       .  A
C2158      C2159   1.524       .  S
C2159      F2163   1.385       .  S
C2159      F2164   1.384       .  S
C2159      F2165   1.383       .  S
C2162      F2166   1.383       .  S
C2162      F2167   1.371       .  S
C2162      F2168   1.385       .  S
C2169      C2170   1.401   1_655  A
C2169      C2174   1.409       .  A
C2169      H2176   1.085       .  S
C2170      C2171   1.426       .  A
C2171      C2172   1.406       .  A
C2171      C2178   1.523       .  S
C2172      C2173   1.403       .  A
C2172      H2177   1.082       .  S
C2173      C2174   1.429   1_455  A
C2174      C2175   1.514       .  S
C2175      F2179   1.384       .  S
C2175      F2180   1.366       .  S
C2175      F2181   1.383       .  S
C2178      F2182   1.383       .  S
C2178      F2183   1.383       .  S
C2178      F2184   1.385       .  S
C2185      C2186   1.402       .  A
C2185      C2190   1.401       .  A
C2185      H2192   1.082       .  S
C2186      C2187   1.423   1_455  A
C2187      C2188   1.415       .  A
C2187      C2194   1.518       .  S
C2188      C2189   1.407   1_655  A
C2188      H2193   1.078       .  S
C2189      C2190   1.422       .  A
C2190      C2191   1.515       .  S
C2191      F2195   1.385       .  S
C2191      F2196   1.379       .  S
C2191      F2197   1.373       .  S
C2194      F2198   1.383       .  S
C2194      F2199   1.383       .  S
C2194      F2200   1.385       .  S
C2201      C2202   1.407       .  A
C2201      C2206   1.405       .  A
C2201      H2208   1.081       .  S
C2202      C2203   1.420       .  A
C2203      C2204   1.414       .  A
C2203      C2210   1.517       .  S
C2204      C2205   1.409       .  A
C2204      H2209   1.081       .  S
C2205      C2206   1.418       .  A
C2206      C2207   1.516       .  S
C2207      F2211   1.385       .  S
C2207      F2212   1.379       .  S
C2207      F2213   1.378       .  S
C2210      F2214   1.384       .  S
C2210      F2215   1.382       .  S
C2210      F2216   1.385       .  S
C2217      C2218   1.405   1_554  A
C2217      C2222   1.407       .  A
C2217      H2224   1.084       .  S
C2218      C2219   1.424       .  A
C2219      C2220   1.408       .  A
C2219      C2226   1.520       .  S
C2220      C2221   1.404       .  A
C2220      H2225   1.080       .  S
C2221      C2222   1.425   1_556  A
C2222      C2223   1.514       .  S
C2223      F2227   1.383       .  S
C2223      F2228   1.384       .  S
C2223      F2229   1.370       .  S
C2226      F2230   1.383       .  S
C2226      F2231   1.384       .  S
C2226      F2232   1.385       .  S
C2233      C2234   1.411   1_554  A
C2233      C2238   1.409       .  A
C2233      H2240   1.073       .  S
C2234      C2235   1.422       .  A
C2235      C2236   1.408       .  A
C2235      C2242   1.518       .  S
C2236      C2237   1.406       .  A
C2236      H2241   1.082       .  S
C2237      C2238   1.412   1_556  A
C2238      C2239   1.516       .  S
C2239      F2243   1.384       .  S
C2239      F2244   1.382       .  S
C2239      F2245   1.384       .  S
C2242      F2246   1.379       .  S
C2242      F2247   1.380       .  S
C2242      F2248   1.385       .  S
C2249      C2250   1.402       .  A
C2249      C2254   1.405       .  A
C2249      H2256   1.084       .  S
C2250      C2251   1.428       .  A
C2251      C2252   1.410       .  A
C2251      C2258   1.524       .  S
C2252      C2253   1.402       .  A
C2252      H2257   1.071       .  S
C2253      C2254   1.428       .  A
C2254      C2255   1.517       .  S
C2255      F2259   1.383       .  S
C2255      F2260   1.370       .  S
C2255      F2261   1.384       .  S
C2258      F2262   1.384       .  S
C2258      F2263   1.382       .  S
C2258      F2264   1.385       .  S
C2265      C2266   1.402       .  A
C2265      C2270   1.409       .  A
C2265      H2272   1.085       .  S
C2266      C2267   1.424       .  A
C2267      C2268   1.406       .  A
C2267      C2274   1.522       .  S
C2268      C2269   1.405       .  A
C2268      H2273   1.081       .  S
C2269      C2270   1.427       .  A
C2270      C2271   1.514       .  S
C2271      F2275   1.384       .  S
C2271      F2276   1.368       .  S
C2271      F2277   1.383       .  S
C2274      F2278   1.383       .  S
C2274      F2279   1.383       .  S
C2274      F2280   1.385       .  S
C2281      C2282   1.407       .  A
C2281      C2286   1.400       .  A
C2281      H2288   1.076       .  S
C2282      C2283   1.429       .  A
C2283      C2284   1.412       .  A
C2283      C2290   1.514       .  S
C2284      C2285   1.404       .  A
C2284      H2289   1.085       .  S
C2285      C2286   1.422       .  A
C2286      C2287   1.525       .  S
C2287      F2291   1.385       .  S
C2287      F2292   1.384       .  S
C2287      F2293   1.383       .  S
C2290      F2294   1.367       .  S
C2290      F2295   1.383       .  S
C2290      F2296   1.384       .  S
C2297      C2298   1.402       .  A
C2297      C2302   1.403       .  A
C2297      H2304   1.084       .  S
C2298      C2299   1.415       .  A
C2299      C2300   1.411       .  A
C2299      C2306   1.516       .  S
C2300      C2301   1.411       .  A
C2300      H2305   1.078       .  S
C2301      C2302   1.422       .  A
C2302      C2303   1.515       .  S
C2303      F2307   1.385       .  S
C2303      F2308   1.382       .  S
C2303      F2309   1.382       .  S
C2306      F2310   1.384       .  S
C2306      F2311   1.381       .  S
C2306      F2312   1.385       .  S
C2313      C2314   1.402       .  A
C2313      C2318   1.400       .  A
C2313      H2320   1.083       .  S
C2314      C2315   1.411       .  A
C2315      C2316   1.411       .  A
C2315      C2322   1.516       .  S
C2316      C2317   1.413       .  A
C2316      H2321   1.076       .  S
C2317      C2318   1.425       .  A
C2318      C2319   1.521       .  S
C2319      F2323   1.385       .  S
C2319      F2324   1.376       .  S
C2319      F2325   1.381       .  S
C2322      F2326   1.383       .  S
C2322      F2327   1.382       .  S
C2322      F2328   1.385       .  S
C2329      C2330   1.402       .  A
C2329      C2334   1.406       .  A
C2329      H2336   1.081       .  S
C2330      C2331   1.423       .  A
C2331      C2332   1.408       .  A
C2331      C2338   1.518       .  S
C2332      C2333   1.404       .  A
C2332      H2337   1.085       .  S
C2333      C2334   1.426       .  A
C2334      C2335   1.524       .  S
C2335      F2339   1.385       .  S
C2335      F2340   1.385       .  S
C2335      F2341   1.382       .  S
C2338      F2342   1.380       .  S
C2338      F2343   1.382       .  S
C2338      F2344   1.384       .  S
C2345      C2346   1.403       .  A
C2345      C2350   1.412       .  A
C2345      H2352   1.085       .  S
C2346      C2347   1.424       .  A
C2347      C2348   1.404       .  A
C2347      C2354   1.525       .  S
C2348      C2349   1.404       .  A
C2348      H2353   1.077       .  S
C2349      C2350   1.428       .  A
C2350      C2351   1.515       .  S
C2351      F2355   1.385       .  S
C2351      F2356   1.382       .  S
C2351      F2357   1.372       .  S
C2354      F2358   1.382       .  S
C2354      F2359   1.384       .  S
C2354      F2360   1.385       .  S
C2361      C2362   1.401       .  A
C2361      C2366   1.400       .  A
C2361      H2368   1.084       .  S
C2362      C2363   1.416       .  A
C2363      C2364   1.416       .  A
C2363      C2370   1.516       .  S
C2364      C2365   1.413       .  A
C2364      H2369   1.080       .  S
C2365      C2366   1.425       .  A
C2366      C2367   1.522       .  S
C2367      F2371   1.385       .  S
C2367      F2372   1.375       .  S
C2367      F2373   1.382       .  S
C2370      F2374   1.383       .  S
C2370      F2375   1.382       .  S
C2370      F2376   1.385       .  S
C2377      C2378   1.404       .  A
C2377      C2382   1.400       .  A
C2377      H2384   1.084       .  S
C2378      C2379   1.426       .  A
C2379      C2380   1.413       .  A
C2379      C2386   1.519       .  S
C2380      C2381   1.407       .  A
C2380      H2385   1.083       .  S
C2381      C2382   1.421       .  A
C2382      C2383   1.515       .  S
C2383      F2387   1.382       .  S
C2383      F2388   1.370       .  S
C2383      F2389   1.385       .  S
C2386      F2390   1.384       .  S
C2386      F2391   1.383       .  S
C2386      F2392   1.385       .  S
C2393      C2394   1.406       .  A
C2393      C2398   1.403       .  A
C2393      H2400   1.083       .  S
C2394      C2395   1.418       .  A
C2395      C2396   1.410       .  A
C2395      C2402   1.515       .  S
C2396      C2397   1.408       .  A
C2396      H2401   1.081       .  S
C2397      C2398   1.425       .  A
C2398      C2399   1.517       .  S
C2399      F2403   1.382       .  S
C2399      F2404   1.367       .  S
C2399      F2405   1.385       .  S
C2402      F2406   1.383       .  S
C2402      F2407   1.383       .  S
C2402      F2408   1.385       .  S
C2409      C2410   1.406       .  A
C2409      C2414   1.408       .  A
C2409      H2416   1.084       .  S
C2410      C2411   1.424       .  A
C2411      C2412   1.409       .  A
C2411      C2418   1.520       .  S
C2412      C2413   1.407       .  A
C2412      H2417   1.080       .  S
C2413      C2414   1.423       .  A
C2414      C2415   1.513       .  S
C2415      F2419   1.382       .  S
C2415      F2420   1.372       .  S
C2415      F2421   1.384       .  S
C2418      F2422   1.383       .  S
C2418      F2423   1.384       .  S
C2418      F2424   1.385       .  S
C2425      C2426   1.407       .  A
C2425      C2430   1.413       .  A
C2425      H2432   1.080       .  S
C2426      C2427   1.416       .  A
C2427      C2428   1.401       .  A
C2427      C2434   1.516       .  S
C2428      C2429   1.406       .  A
C2428      H2433   1.084       .  S
C2429      C2430   1.420       .  A
C2430      C2431   1.516       .  S
C2431      F2435   1.385       .  S
C2431      F2436   1.383       .  S
C2431      F2437   1.382       .  S
C2434      F2438   1.380       .  S
C2434      F2439   1.383       .  S
C2434      F2440   1.385       .  S
C2441      C2442   1.411       .  A
C2441      C2446   1.416       .  A
C2441      H2448   1.082       .  S
C2442      C2443   1.419       .  A
C2443      C2444   1.404       .  A
C2443      C2450   1.518       .  S
C2444      C2445   1.406       .  A
C2444      H2449   1.081       .  S
C2445      C2446   1.418       .  A
C2446      C2447   1.516       .  S
C2447      F2451   1.385       .  S
C2447      F2452   1.382       .  S
C2447      F2453   1.384       .  S
C2450      F2454   1.379       .  S
C2450      F2455   1.380       .  S
C2450      F2456   1.385       .  S
C2457      C2458   1.398       .  A
C2457      C2462   1.400       .  A
C2457      H2464   1.085       .  S
C2458      C2459   1.409       .  A
C2459      C2460   1.412       .  A
C2459      C2466   1.516       .  S
C2460      C2461   1.415       .  A
C2460      H2465   1.072       .  S
C2461      C2462   1.430       .  A
C2462      C2463   1.519       .  S
C2463      F2467   1.383       .  S
C2463      F2468   1.369       .  S
C2463      F2469   1.385       .  S
C2466      F2470   1.382       .  S
C2466      F2471   1.383       .  S
C2466      F2472   1.384       .  S
C2473      C2474   1.406       .  A
C2473      C2478   1.401       .  A
C2473      H2480   1.084       .  S
C2474      C2475   1.423       .  A
C2475      C2476   1.415       .  A
C2475      C2482   1.518       .  S
C2476      C2477   1.409       .  A
C2476      H2481   1.081       .  S
C2477      C2478   1.418       .  A
C2478      C2479   1.514       .  S
C2479      F2483   1.384       .  S
C2479      F2484   1.370       .  S
C2479      F2485   1.383       .  S
C2482      F2486   1.383       .  S
C2482      F2487   1.383       .  S
C2482      F2488   1.385       .  S
C2489      C2490   1.403       .  A
C2489      C2494   1.413       .  A
C2489      H2496   1.083       .  S
C2490      C2491   1.426       .  A
C2491      C2492   1.404       .  A
C2491      C2498   1.525       .  S
C2492      C2493   1.402       .  A
C2492      H2497   1.080       .  S
C2493      C2494   1.427       .  A
C2494      C2495   1.519       .  S
C2495      F2499   1.385       .  S
C2495      F2500   1.380       .  S
C2495      F2501   1.376       .  S
C2498      F2502   1.382       .  S
C2498      F2503   1.384       .  S
C2498      F2504   1.385       .  S
C2505      C2506   1.406       .  A
C2505      C2510   1.405       .  A
C2505      H2512   1.084       .  S
C2506      C2507   1.419       .  A
C2507      C2508   1.411       .  A
C2507      C2514   1.517       .  S
C2508      C2509   1.407       .  A
C2508      H2513   1.075       .  S
C2509      C2510   1.418       .  A
C2510      C2511   1.515       .  S
C2511      F2515   1.384       .  S
C2511      F2516   1.380       .  S
C2511      F2517   1.383       .  S
C2514      F2518   1.383       .  S
C2514      F2519   1.383       .  S
C2514      F2520   1.384       .  S
C2521      C2522   1.399       .  A
C2521      C2526   1.409       .  A
C2521      H2528   1.085       .  S
C2522      C2523   1.423       .  A
C2523      C2524   1.404       .  A
C2523      C2530   1.523       .  S
C2524      C2525   1.405       .  A
C2524      H2529   1.082       .  S
C2525      C2526   1.431       .  A
C2526      C2527   1.513       .  S
C2527      F2531   1.385       .  S
C2527      F2532   1.383       .  S
C2527      F2533   1.367       .  S
C2530      F2534   1.383       .  S
C2530      F2535   1.383       .  S
C2530      F2536   1.385       .  S
C2537      C2538   1.398       .  A
C2537      C2542   1.400       .  A
C2537      H2544   1.085       .  S
C2538      C2539   1.409       .  A
C2539      C2540   1.411       .  A
C2539      C2546   1.516       .  S
C2540      C2541   1.415       .  A
C2540      H2545   1.071       .  S
C2541      C2542   1.430       .  A
C2542      C2543   1.518       .  S
C2543      F2547   1.383       .  S
C2543      F2548   1.369       .  S
C2543      F2549   1.385       .  S
C2546      F2550   1.382       .  S
C2546      F2551   1.383       .  S
C2546      F2552   1.385       .  S
C2553      C2554   1.402       .  A
C2553      C2558   1.397       .  A
C2553      H2560   1.084       .  S
C2554      C2555   1.415       .  A
C2555      C2556   1.416       .  A
C2555      C2562   1.515       .  S
C2556      C2557   1.414       .  A
C2556      H2561   1.080       .  S
C2557      C2558   1.423       .  A
C2558      C2559   1.520       .  S
C2559      F2563   1.385       .  S
C2559      F2564   1.373       .  S
C2559      F2565   1.383       .  S
C2562      F2566   1.383       .  S
C2562      F2567   1.382       .  S
C2562      F2568   1.385       .  S
C2569      C2570   1.403       .  A
C2569      C2574   1.409       .  A
C2569      H2576   1.081       .  S
C2570      C2571   1.416       .  A
C2571      C2572   1.407       .  A
C2571      C2578   1.520       .  S
C2572      C2573   1.409       .  A
C2572      H2577   1.069       .  S
C2573      C2574   1.427       .  A
C2574      C2575   1.517       .  S
C2575      F2579   1.385       .  S
C2575      F2580   1.371       .  S
C2575      F2581   1.374       .  S
C2578      F2582   1.383       .  S
C2578      F2583   1.383       .  S
C2578      F2584   1.385       .  S
C2585      C2586   1.406       .  A
C2585      C2590   1.404       .  A
C2585      H2592   1.082       .  S
C2586      C2587   1.413       .  A
C2587      C2588   1.411       .  A
C2587      C2594   1.516       .  S
C2588      C2589   1.412       .  A
C2588      H2593   1.078       .  S
C2589      C2590   1.421       .  A
C2590      C2591   1.519       .  S
C2591      F2595   1.385       .  S
C2591      F2596   1.379       .  S
C2591      F2597   1.380       .  S
C2594      F2598   1.381       .  S
C2594      F2599   1.384       .  S
C2594      F2600   1.385       .  S
C2601      C2602   1.396       .  A
C2601      C2606   1.391       .  A
C2601      H2608   1.086       .  S
C2602      C2603   1.418       .  A
C2603      C2604   1.423       .  A
C2603      C2610   1.512       .  S
C2604      C2605   1.415       .  A
C2604      H2609   1.079       .  S
C2605      C2606   1.425       .  A
C2606      C2607   1.527       .  S
C2607      F2611   1.388       .  S
C2607      F2612   1.377       .  S
C2607      F2613   1.379       .  S
C2610      F2614   1.383       .  S
C2610      F2615   1.383       .  S
C2610      F2616   1.384       .  S
C2617      C2618   1.408       .  A
C2617      C2622   1.417       .  A
C2617      H2624   1.082       .  S
C2618      C2619   1.425       .  A
C2619      C2620   1.401       .  A
C2619      C2626   1.521       .  S
C2620      C2621   1.403       .  A
C2620      H2625   1.084       .  S
C2621      C2622   1.421       .  A
C2622      C2623   1.517       .  S
C2623      F2627   1.385       .  S
C2623      F2628   1.383       .  S
C2623      F2629   1.383       .  S
C2626      F2630   1.382       .  S
C2626      F2631   1.378       .  S
C2626      F2632   1.385       .  S
C2633      C2634   1.401       .  A
C2633      C2638   1.413       .  A
C2633      H2640   1.085       .  S
C2634      C2635   1.421       .  A
C2635      C2636   1.399       .  A
C2635      C2642   1.522       .  S
C2636      C2637   1.410       .  A
C2636      H2641   1.077       .  S
C2637      C2638   1.426       .  A
C2638      C2639   1.520       .  S
C2639      F2643   1.387       .  S
C2639      F2644   1.378       .  S
C2639      F2645   1.380       .  S
C2642      F2646   1.380       .  S
C2642      F2647   1.382       .  S
C2642      F2648   1.385       .  S
C2649      C2650   1.401       .  A
C2649      C2654   1.412       .  A
C2649      H2656   1.085       .  S
C2650      C2651   1.423       .  A
C2651      C2652   1.404       .  A
C2651      C2658   1.524       .  S
C2652      C2653   1.406       .  A
C2652      H2657   1.081       .  S
C2653      C2654   1.431       .  A
C2654      C2655   1.515       .  S
C2655      F2659   1.385       .  S
C2655      F2660   1.383       .  S
C2655      F2661   1.369       .  S
C2658      F2662   1.382       .  S
C2658      F2663   1.384       .  S
C2658      F2664   1.385       .  S
