geometry optimzed in LAMMPS
_audit_creation_date              2020-12-01 
_audit_creation_method            'lammps2cif' 
_symmetry_space_group_name_H-M    'P1' 
_symmetry_Int_Tables_number       1 
_symmetry_cell_setting            triclinic 
loop_ 
_symmetry_equiv_pos_as_xyz 
  x,y,z 
_cell_length_a                    23.97995626 
_cell_length_b                    24.64233065278637 
_cell_length_c                    24.539274826423295 
_cell_angle_alpha                 89.84159101945212 
_cell_angle_beta                  90.18344606407298 
_cell_angle_gamma                 89.68503454254021 
loop_ 
_atom_site_label 
_atom_site_type_symbol 
_atom_site_fract_x 
_atom_site_fract_y 
_atom_site_fract_z 
_atom_site_charge 
C1          C  0.35994677  0.63809463  0.61933995    -0.01800
O2          O  0.42202181  0.62925328  0.55010728    -0.74600
O3          O  0.42640997  0.56123384  0.61273620    -0.53500
C4          C  0.40377024  0.60504056  0.59145801     0.79100
O5          O  0.37817156  0.41387212  0.39408168    -0.59200
O6          O  0.44376099  0.42199013  0.32820953    -0.52300
C7          C  0.40064090  0.39823893  0.35055100     0.71100
O8          O  0.38475392  0.40560103  0.54644459    -0.73800
O9          O  0.43528253  0.42892391  0.62121669    -0.54300
C10         C  0.39778867  0.39982075  0.59553250     0.77100
O11         O  0.43058618  0.63135309  0.39198886    -0.58900
O12         O  0.43750192  0.56577206  0.32736583    -0.60000
C13         C  0.41307337  0.60800089  0.35006495     0.73700
Zr14       Zr  0.45207355  0.59105713  0.47136669     2.54700
O15         O  0.35716777  0.55991163  0.46768662    -0.79500
O16         O  0.47433610  0.68919696  0.47271703    -0.92900
Zr17       Zr  0.41551061  0.44807949  0.47116577     2.64700
O18         O  0.31371158  0.45075562  0.47534741    -0.97900
O19         O  0.46412239  0.37018514  0.43973968    -0.79900
O20         O  0.43138667  0.51949979  0.52830379    -0.83300
O21         O  0.43055362  0.51849073  0.41428742    -2.18000
O22         O  0.64218966  0.57385196  0.39826922    -0.66700
O23         O  0.57720470  0.56803668  0.33130135    -0.51200
C24         C  0.62055947  0.59041279  0.35461695     0.72100
O25         O  0.58325027  0.36719161  0.55609367    -0.59600
O26         O  0.58352703  0.43605642  0.61650026    -0.51600
C27         C  0.60434884  0.39127514  0.59616980     0.73900
O28         O  0.57830875  0.36172594  0.39178765    -0.71000
O29         O  0.58044908  0.42867192  0.32864118    -0.49700
C30         C  0.60075631  0.38448476  0.35140760     0.75300
O31         O  0.63858468  0.56833805  0.55732471    -0.66300
O32         O  0.57209338  0.56634090  0.62208395    -0.53500
C33         C  0.61546376  0.58810112  0.59858923     0.73700
Zr34       Zr  0.59799193  0.55032353  0.47579135     2.77500
O35         O  0.69812479  0.53529247  0.47743480    -0.97100
O36         O  0.56830367  0.64383144  0.47199070    -0.77900
Zr37       Zr  0.56207330  0.40441763  0.47358100     2.70100
O38         O  0.65884299  0.42880653  0.47532846    -0.79100
O39         O  0.54389159  0.30656014  0.48487211    -0.98200
Zr40       Zr  0.50476706  0.49761534  0.58741332     2.21500
Zr41       Zr  0.50848993  0.49663513  0.35908770     2.11100
O42         O  0.58421730  0.47800169  0.41856479    -2.46900
O43         O  0.58040843  0.47685478  0.53053600    -0.78900
O44         O  0.52690373  0.57051117  0.41620460    -0.71100
O45         O  0.48774471  0.42361248  0.52948741    -2.32100
O46         O  0.52365991  0.57362816  0.53098542    -2.28300
O47         O  0.48821320  0.42324070  0.41592842    -0.72900
H48         H  0.39615799  0.51879839  0.39408186     0.79100
H49         H  0.48447881  0.38956682  0.54885022     0.80200
H50         H  0.61914793  0.47442067  0.39969663     0.82400
H51         H  0.52667752  0.60737434  0.55060202     0.80000
H52         H  0.46043486  0.34961536  0.47348594     0.43100
H53         H  0.52633752  0.29100021  0.45184657     0.42100
H54         H  0.66920387  0.42870183  0.51424574     0.41700
H55         H  0.70515737  0.51230903  0.50913500     0.39700
H56         H  0.56480836  0.65478739  0.43328440     0.42800
H57         H  0.46000758  0.70706907  0.50587924     0.37600
H58         H  0.34558630  0.55281848  0.50526669     0.43700
H59         H  0.30036327  0.48343281  0.45597987     0.40100
H60         H  0.70508980  0.50943750  0.44807039     0.45000
H61         H  0.45811523  0.70915091  0.44144044     0.43800
H62         H  0.29909313  0.42103247  0.45318209     0.43900
H63         H  0.51845736  0.29946815  0.51572028     0.44200
C64         C  0.64855989  0.35701500  0.62380760    -0.01800
C65         C  0.36500055  0.35651292  0.32266516    -0.01800
C66         C  0.65674455  0.63160545  0.32692103    -0.01800
C67         C  0.36988449  0.64150207  0.32209654    -0.01800
C68         C  0.64730669  0.35114770  0.32607262    -0.01800
C69         C  0.36139492  0.35830154  0.62245608    -0.01800
C70         C  0.65007221  0.63117269  0.62458782    -0.01800
N71         N  0.19621684  0.32591796  0.97738048    -0.35900
N72         N  0.26081394  0.24292516  0.10145957    -0.56500
N73         N  0.34787116  0.18167091  0.97482003    -0.35900
N74         N  0.27114318  0.25482305  0.87318171    -0.56500
C75         C  0.17836222  0.29966557  0.02293127     0.27600
C76         C  0.17159188  0.30219892  0.93382091     0.27600
C77         C  0.32163931  0.16563488  0.02186551     0.27600
C78         C  0.32102817  0.15851239  0.93137876     0.27600
C79         C  0.24922129  0.29557414  0.08959146     0.36300
C80         C  0.31571385  0.23377160  0.09168112     0.36300
C81         C  0.21801214  0.26544870  0.85860749     0.36300
C82         C  0.28109309  0.20363577  0.85661581     0.36300
C83         C  0.14291006  0.25832340  0.00884849    -0.21200
C84         C  0.14005317  0.25863908  0.95267433    -0.21200
C85         C  0.27498132  0.13629523  0.00815901    -0.21200
C86         C  0.27437976  0.13191264  0.95191101    -0.21200
C87         C  0.29594052  0.31800177  0.06553664    -0.22300
C88         C  0.33802348  0.27990925  0.06840251    -0.22300
C89         C  0.19236911  0.21855782  0.84095436    -0.22300
C90         C  0.23287294  0.18014557  0.83736201    -0.22300
C91         C  0.19442807  0.31283131  0.07726894    -0.17600
C92         C  0.18898153  0.30987434  0.87845032    -0.17600
C93         C  0.32673407  0.17390721  0.87432796    -0.17600
C94         C  0.33524770  0.18216603  0.07685331    -0.17600
H95         H  0.12411785  0.22905194  0.03587097     0.15300
H96         H  0.11973050  0.22794096  0.92884448     0.15300
H97         H  0.24372478  0.12098263  0.03573463     0.15300
H98         H  0.24180732  0.11279568  0.92841741     0.15300
H99         H  0.29787297  0.35581655  0.04318675     0.13600
H100        H  0.37814522  0.28300644  0.04858589     0.13600
H101        H  0.14871997  0.21185855  0.83314027     0.13600
H102        H  0.22616398  0.13905527  0.82551762     0.13600
H103        H  0.22504709  0.35746867  0.97591323     0.26800
H104        H  0.38142049  0.20840617  0.97243790     0.26800
N105        N  0.33784955  0.99649125  0.14803829    -0.35900
N106        N  0.25477602  0.90847396  0.21922673    -0.56500
N107        N  0.19064074  0.99614431  0.30954252    -0.35900
N108        N  0.25020628  0.08143660  0.21964559    -0.56500
C109        C  0.31135922  0.95073187  0.12808721     0.27600
C110        C  0.31062720  0.04310215  0.13099418     0.27600
C111        C  0.16831283  0.95084514  0.28453486     0.27600
C112        C  0.16646941  0.04328607  0.28904932     0.27600
C113        C  0.28309064  0.87531343  0.18410376     0.36300
C114        C  0.22850068  0.87585994  0.25616076     0.36300
C115        C  0.28204646  0.11593306  0.18885904     0.36300
C116        C  0.23345136  0.11017492  0.26428775     0.36300
C117        C  0.25959997  0.96934926  0.10961814    -0.21200
C118        C  0.25895521  0.02583683  0.11167905    -0.21200
C119        C  0.13810165  0.97057424  0.24017085    -0.21200
C120        C  0.13642564  0.02728785  0.24329441    -0.21200
C121        C  0.27184102  0.82250808  0.19745800    -0.22300
C122        C  0.24325608  0.82290351  0.24517643    -0.22300
C123        C  0.27871820  0.16594781  0.21168836    -0.22300
C124        C  0.26061904  0.15722776  0.26397812    -0.22300
C125        C  0.32098022  0.89313401  0.14269174    -0.17600
C126        C  0.32131015  0.09946478  0.14784046    -0.17600
C127        C  0.18619637  0.09933945  0.29775646    -0.17600
C128        C  0.18450198  0.89309944  0.29210179    -0.17600
H129        H  0.22442407  0.94434864  0.09841082     0.15300
H130        H  0.22360430  0.05145754  0.10159558     0.15300
H131        H  0.12061881  0.94684714  0.20753953     0.15300
H132        H  0.11845471  0.05384904  0.21286565     0.15300
H133        H  0.28464999  0.78607747  0.17766886     0.13600
H134        H  0.22833148  0.78637161  0.26230320     0.13600
H135        H  0.29323494  0.20387643  0.19580911     0.13600
H136        H  0.26650232  0.18278113  0.29844097     0.13600
H137        H  0.36507470  0.99638823  0.18110482     0.26800
H138        H  0.22511288  0.99532829  0.33539791     0.26800
N139        N  0.00684979  0.18401280  0.31038168    -0.35900
N140        N  0.09238885  0.24956411  0.21672759    -0.56500
N141        N  0.00212891  0.33502726  0.15116068    -0.35900
N142        N  0.88000308  0.24667768  0.21681498    -0.56500
C143        C  0.05236581  0.16463945  0.28310659     0.27600
C144        C  0.96016045  0.16903082  0.28214467     0.27600
C145        C  0.04927967  0.31015969  0.13033499     0.27600
C146        C  0.95460472  0.30760757  0.13622223     0.27600
C147        C  0.12676545  0.22187204  0.25148839     0.36300
C148        C  0.12566195  0.28315689  0.18660151     0.36300
C149        C  0.89168598  0.23850337  0.27060843     0.36300
C150        C  0.88494256  0.30058652  0.20567165     0.36300
C151        C  0.03366627  0.14029712  0.23545435    -0.21200
C152        C  0.97595878  0.14257400  0.23518029    -0.21200
C153        C  0.03057743  0.25872664  0.11434289    -0.21200
C154        C  0.97244541  0.25705662  0.11849269    -0.21200
C155        C  0.17958469  0.24024996  0.24223755    -0.22300
C156        C  0.17942218  0.27543131  0.20108019    -0.22300
C157        C  0.91358692  0.28612937  0.29097996    -0.22300
C158        C  0.90733219  0.32538567  0.25127121    -0.22300
C159        C  0.10910981  0.18214104  0.29091062    -0.17600
C160        C  0.90397799  0.18653913  0.29325535    -0.17600
C161        C  0.89746211  0.32021934  0.15290250    -0.17600
C162        C  0.10791900  0.32011306  0.14583791    -0.17600
H163        H  0.05923863  0.12636851  0.20208643     0.15300
H164        H  0.94874630  0.12930722  0.20263337     0.15300
H165        H  0.05669245  0.22449173  0.10372298     0.15300
H166        H  0.94655688  0.22215039  0.11058347     0.15300
H167        H  0.21529043  0.23902601  0.26584734     0.13600
H168        H  0.21630877  0.29274711  0.18571780     0.13600
H169        H  0.93630073  0.29088763  0.32880036     0.13600
H170        H  0.92512479  0.36555296  0.25293167     0.13600
H171        H  0.00756767  0.20916338  0.34455427     0.26800
H172        H  0.00203848  0.36188069  0.18369904     0.26800
N173        N  0.50960481  0.32815524  0.29293259    -0.35900
N174        N  0.62437403  0.25142270  0.21473624    -0.56500
N175        N  0.51295370  0.17541975  0.14014330    -0.35900
N176        N  0.39767294  0.25828140  0.21130170    -0.56500
C177        C  0.55444108  0.29510536  0.30451658     0.27600
C178        C  0.46224387  0.30254553  0.31036159     0.27600
C179        C  0.55941336  0.15557669  0.16610676     0.27600
C180        C  0.46722867  0.15509719  0.16635890     0.27600
C181        C  0.63985335  0.26303313  0.26630829     0.36300
C182        C  0.63844767  0.19939752  0.20337856     0.36300
C183        C  0.38110314  0.27113000  0.26294430     0.36300
C184        C  0.39272477  0.20367047  0.20581021     0.36300
C185        C  0.53557816  0.24833702  0.32915413    -0.21200
C186        C  0.47890162  0.25278018  0.33282921    -0.21200
C187        C  0.54250759  0.12425633  0.21005683    -0.21200
C188        C  0.48525100  0.12262933  0.20925320    -0.21200
C189        C  0.65613370  0.21476633  0.29100670    -0.22300
C190        C  0.65471209  0.17476067  0.25179370    -0.22300
C191        C  0.36872313  0.22344657  0.29022001    -0.22300
C192        C  0.38181235  0.18120053  0.25625286    -0.22300
C193        C  0.61314645  0.30535523  0.29460117    -0.17600
C194        C  0.40538578  0.31433223  0.29249197    -0.17600
C195        C  0.41005423  0.17332563  0.15988742    -0.17600
C196        C  0.61662319  0.17170194  0.15722609    -0.17600
H197        H  0.55989674  0.21428816  0.34390144     0.15300
H198        H  0.45347759  0.22098973  0.34965287     0.15300
H199        H  0.56878706  0.10372105  0.23953500     0.15300
H200        H  0.45987360  0.10087168  0.23817467     0.15300
H201        H  0.66011283  0.20723948  0.33426493     0.13600
H202        H  0.66071355  0.13180134  0.25909421     0.13600
H203        H  0.36007397  0.21902933  0.33321257     0.13600
H204        H  0.37937521  0.13857876  0.26659237     0.13600
H205        H  0.51102539  0.36398120  0.27019742     0.26800
H206        H  0.51242808  0.20404590  0.10868891     0.26800
N207        N  0.18692285  0.20052551  0.47209999    -0.35900
N208        N  0.26313881  0.25099382  0.37381645    -0.56500
N209        N  0.31018885  0.32439397  0.47238231    -0.35900
N210        N  0.26099899  0.25005736  0.56937506    -0.56500
C211        C  0.20076673  0.17118422  0.42721308     0.27600
C212        C  0.19752423  0.16944720  0.51682313     0.27600
C213        C  0.34207859  0.31432127  0.42669990     0.27600
C214        C  0.34090329  0.31366413  0.51886911     0.27600
C215        C  0.20893911  0.24066976  0.36372639     0.36300
C216        C  0.27445807  0.30175192  0.35669784     0.36300
C217        C  0.20804356  0.23797394  0.58317250     0.36300
C218        C  0.27178258  0.30119852  0.58612201     0.36300
C219        C  0.22488811  0.12302681  0.44353049    -0.21200
C220        C  0.22226090  0.12162390  0.50007030    -0.21200
C221        C  0.38906804  0.28710560  0.44500927    -0.21200
C222        C  0.38887975  0.28752061  0.50225308    -0.21200
C223        C  0.18285995  0.28839971  0.34685161    -0.22300
C224        C  0.22514723  0.32682243  0.34046790    -0.22300
C225        C  0.18249398  0.28450709  0.60342330    -0.22300
C226        C  0.22374973  0.32406455  0.60756424    -0.22300
C227        C  0.18787019  0.18756953  0.37235286    -0.17600
C228        C  0.18510751  0.18605815  0.57143748    -0.17600
C229        C  0.32363551  0.32606329  0.57521828    -0.17600
C230        C  0.32595934  0.32622504  0.36956681    -0.17600
H231        H  0.24407970  0.09352956  0.41695134     0.15300
H232        H  0.24012221  0.09091263  0.52559170     0.15300
H233        H  0.42160984  0.27021534  0.42041552     0.15300
H234        H  0.42091532  0.27070465  0.52809549     0.15300
H235        H  0.13889281  0.29448868  0.33874950     0.13600
H236        H  0.21941949  0.36885657  0.32897872     0.13600
H237        H  0.13898460  0.28965208  0.61379814     0.13600
H238        H  0.21799650  0.36533396  0.62135447     0.13600
H239        H  0.16698451  0.23834901  0.47206898     0.26800
H240        H  0.26973870  0.34029839  0.47207723     0.26800
N241        N  0.33791205  0.49792494  0.26827881    -0.35900
N242        N  0.26815355  0.58335250  0.21494773    -0.56500
N243        N  0.20031034  0.49680244  0.14190554    -0.35900
N244        N  0.25766963  0.37361761  0.22215477    -0.56500
C245        C  0.32827106  0.54258816  0.30018005     0.27600
C246        C  0.31917595  0.45292986  0.29564274     0.27600
C247        C  0.17474993  0.54090822  0.16428405     0.27600
C248        C  0.17427712  0.45114515  0.16085734     0.27600
C249        C  0.30355220  0.61664812  0.24141325     0.36300
C250        C  0.23271166  0.61615353  0.18757909     0.36300
C251        C  0.31286182  0.37991643  0.23113664     0.36300
C252        C  0.24679682  0.38559996  0.16944021     0.36300
C253        C  0.29969405  0.52567448  0.34587457    -0.21200
C254        C  0.29339447  0.47002275  0.34263409    -0.21200
C255        C  0.13423786  0.52314573  0.20016504    -0.21200
C256        C  0.13470380  0.46669202  0.19869866    -0.21200
C257        C  0.29035312  0.66962601  0.22914022    -0.22300
C258        C  0.24539467  0.66917415  0.19712045    -0.22300
C259        C  0.33675222  0.40035317  0.18405959    -0.22300
C260        C  0.29467160  0.40599344  0.14598126    -0.22300
C261        C  0.33705663  0.59903150  0.28485775    -0.17600
C262        C  0.33102930  0.39631384  0.28257043    -0.17600
C263        C  0.19198899  0.39596998  0.15112804    -0.17600
C264        C  0.18937786  0.59736274  0.15521350    -0.17600
H265        H  0.28323619  0.55046275  0.37749500     0.15300
H266        H  0.27138738  0.44458650  0.37101003     0.15300
H267        H  0.10817837  0.54835682  0.22573834     0.15300
H268        H  0.11005060  0.43998904  0.22396673     0.15300
H269        H  0.30067131  0.70637348  0.24837666     0.13600
H270        H  0.22712465  0.70557657  0.18251277     0.13600
H271        H  0.37839236  0.41663328  0.18023048     0.13600
H272        H  0.29810412  0.42622350  0.10699595     0.13600
H273        H  0.35947218  0.49829017  0.23142833     0.26800
H274        H  0.23308383  0.49818732  0.11407919     0.26800
N275        N  0.20249093  0.65767086  0.97234147    -0.35900
N276        N  0.25569111  0.74404932  0.84492031    -0.56500
N277        N  0.31580766  0.79343751  0.96969009    -0.35900
N278        N  0.25033082  0.74594169  0.07436937    -0.56500
C279        C  0.18253813  0.68443565  0.92803632     0.27600
C280        C  0.17625403  0.67785482  0.01685994     0.27600
C281        C  0.30591971  0.82434187  0.92408329     0.27600
C282        C  0.30628387  0.82457180  0.01486238     0.27600
C283        C  0.24942320  0.69141509  0.85806428     0.36300
C284        C  0.30963438  0.75743606  0.85266535     0.36300
C285        C  0.24486509  0.69261049  0.08256907     0.36300
C286        C  0.30376866  0.75841796  0.08414338     0.36300
C287        C  0.14495854  0.72374806  0.94447006    -0.21200
C288        C  0.14189841  0.72037563  0.00081085    -0.21200
C289        C  0.28539757  0.87403282  0.94126040    -0.21200
C290        C  0.28446439  0.87361667  0.99770537    -0.21200
C291        C  0.29919322  0.67255191  0.88006236    -0.22300
C292        C  0.33798651  0.71308397  0.87372194    -0.22300
C293        C  0.29690531  0.66925256  0.09205332    -0.22300
C294        C  0.33456051  0.71192869  0.09486962    -0.22300
C295        C  0.19700766  0.67186406  0.87297980    -0.17600
C296        C  0.19438917  0.66693359  0.07110670    -0.17600
C297        C  0.32304328  0.80965348  0.07021923    -0.17600
C298        C  0.32219862  0.81021627  0.86847570    -0.17600
H299        H  0.12393636  0.75313142  0.91893254     0.15300
H300        H  0.11909094  0.74764439  0.02685415     0.15300
H301        H  0.27312142  0.90767291  0.91614030     0.15300
H302        H  0.27018339  0.90602883  0.02327626     0.15300
H303        H  0.30543179  0.63557228  0.90317955     0.13600
H304        H  0.37938877  0.71321067  0.89144249     0.13600
H305        H  0.30657934  0.62642969  0.09550134     0.13600
H306        H  0.37935471  0.70864491  0.09920052     0.13600
H307        H  0.23232219  0.62662596  0.97235504     0.26800
H308        H  0.33456702  0.75518179  0.97072306     0.26800
N309        N  0.82502962  0.33418334  0.97548742    -0.35900
N310        N  0.74745441  0.24946741  0.86685268    -0.56500
N311        N  0.68977902  0.18683765  0.96611979    -0.35900
N312        N  0.75362065  0.24932099  0.05440003    -0.56500
C313        C  0.84045904  0.30100924  0.93350443     0.27600
C314        C  0.84183311  0.31059636  0.02370330     0.27600
C315        C  0.69948362  0.15314207  0.92370790     0.27600
C316        C  0.69883981  0.15802460  0.01283883     0.27600
C317        C  0.80046513  0.26214542  0.85382999     0.36300
C318        C  0.73959987  0.19761437  0.85103220     0.36300
C319        C  0.76979716  0.29038331  0.08728309     0.36300
C320        C  0.70318353  0.23260177  0.07194723     0.36300
C321        C  0.86519504  0.25483799  0.95577891    -0.21200
C322        C  0.86599085  0.26086843  0.01171367    -0.21200
C323        C  0.71995890  0.10434538  0.94313914    -0.21200
C324        C  0.71779432  0.10672251  0.99940136    -0.21200
C325        C  0.82809469  0.21550438  0.83667480    -0.22300
C326        C  0.78932651  0.17481981  0.83420381    -0.22300
C327        C  0.72783629  0.29848591  0.12442634    -0.22300
C328        C  0.68305926  0.26825469  0.10871158    -0.22300
C329        C  0.82704526  0.30781735  0.87583628    -0.17600
C330        C  0.81827178  0.32234303  0.07665120    -0.17600
C331        C  0.68675385  0.17843636  0.06628193    -0.17600
C332        C  0.69407554  0.16728422  0.86739207    -0.17600
H333        H  0.87968006  0.21931118  0.93423263     0.15300
H334        H  0.87827428  0.22994285  0.04073072     0.15300
H335        H  0.73601657  0.07143450  0.91881708     0.15300
H336        H  0.73034208  0.07498284  0.02665815     0.15300
H337        H  0.87217573  0.21020937  0.82992671     0.13600
H338        H  0.79766929  0.13245238  0.82603147     0.13600
H339        H  0.73298451  0.30702770  0.16632006     0.13600
H340        H  0.64177306  0.26925728  0.12467776     0.13600
H341        H  0.79995593  0.36877172  0.97170153     0.26800
H342        H  0.67425642  0.22644641  0.96319715     0.26800
N343        N  0.01003935  0.17883642  0.63671514    -0.35900
N344        N  0.10108837  0.24943296  0.72610355    -0.56500
N345        N  0.00994691  0.33175125  0.78580392    -0.35900
N346        N  0.91941621  0.25421356  0.72311003    -0.56500
C347        C  0.05589253  0.16408279  0.66721913     0.27600
C348        C  0.96312283  0.16377959  0.66499868     0.27600
C349        C  0.05637275  0.30899477  0.81021161     0.27600
C350        C  0.96245808  0.31089557  0.80978440     0.27600
C351        C  0.13463659  0.21662074  0.69584088     0.36300
C352        C  0.13430717  0.28485831  0.75326554     0.36300
C353        C  0.88614408  0.22067244  0.69351309     0.36300
C354        C  0.88546121  0.28903245  0.75091762     0.36300
C355        C  0.03762419  0.14140728  0.71560839    -0.21200
C356        C  0.98005380  0.14166344  0.71441285    -0.21200
C357        C  0.03753565  0.26577939  0.84115677    -0.21200
C358        C  0.97960636  0.26795647  0.84234617    -0.21200
C359        C  0.18905417  0.23062133  0.70484239    -0.22300
C360        C  0.18875727  0.27470327  0.73856946    -0.22300
C361        C  0.83142421  0.23334170  0.70398012    -0.22300
C362        C  0.83100649  0.27817761  0.73664316    -0.22300
C363        C  0.11414475  0.17805597  0.65775620    -0.17600
C364        C  0.90609223  0.18147640  0.65540190    -0.17600
C365        C  0.90353305  0.32172337  0.79585651    -0.17600
C366        C  0.11524537  0.31858980  0.79685904    -0.17600
H367        H  0.06350027  0.12820141  0.74939248     0.15300
H368        H  0.95313210  0.12931046  0.74747609     0.15300
H369        H  0.06241079  0.23528639  0.86104588     0.15300
H370        H  0.95331120  0.24025821  0.86445703     0.15300
H371        H  0.22562758  0.21407606  0.68657426     0.13600
H372        H  0.22584129  0.29109342  0.75510583     0.13600
H373        H  0.79481296  0.21422861  0.68843057     0.13600
H374        H  0.79361287  0.29442813  0.75308631     0.13600
H375        H  0.01080461  0.20187495  0.60096366     0.26800
H376        H  0.01103550  0.35875851  0.75300134     0.26800
N377        N  0.68509762  0.49286009  0.27634177    -0.35900
N378        N  0.75756549  0.37711756  0.23200870    -0.56500
N379        N  0.82684100  0.49703489  0.13734455    -0.35900
N380        N  0.76670742  0.59439682  0.22605534    -0.56500
C381        C  0.69404358  0.44716865  0.30663197     0.27600
C382        C  0.70503736  0.53597187  0.30450422     0.27600
C383        C  0.84160432  0.45438498  0.16934872     0.27600
C384        C  0.84576518  0.54326222  0.16078176     0.27600
C385        C  0.70142445  0.37989779  0.23845407     0.36300
C386        C  0.76871014  0.39336341  0.18062965     0.36300
C387        C  0.71326860  0.60383787  0.23826170     0.36300
C388        C  0.77282448  0.60543873  0.17288885     0.36300
C389        C  0.72245462  0.46140793  0.35352889    -0.21200
C390        C  0.73111502  0.51726714  0.35098231    -0.21200
C391        C  0.86741311  0.47370619  0.21589556    -0.21200
C392        C  0.86973818  0.52978598  0.21068050    -0.21200
C393        C  0.67779104  0.40149837  0.19127637    -0.22300
C394        C  0.72064369  0.41193164  0.15535890    -0.22300
C395        C  0.68328353  0.61572411  0.19122012    -0.22300
C396        C  0.72204424  0.61870204  0.14941307    -0.22300
C397        C  0.67979081  0.39324487  0.28931534    -0.17600
C398        C  0.69366663  0.59170385  0.29021009    -0.17600
C399        C  0.82339449  0.59545245  0.14717134    -0.17600
C400        C  0.82247844  0.39998136  0.16096008    -0.17600
H401        H  0.73605592  0.43477122  0.38584330     0.15300
H402        H  0.75340425  0.54198214  0.38007422     0.15300
H403        H  0.87971880  0.45044197  0.25136336     0.15300
H404        H  0.88352011  0.55791936  0.24166897     0.15300
H405        H  0.63492774  0.41457024  0.18613290     0.13600
H406        H  0.71717524  0.43111156  0.11577425     0.13600
H407        H  0.63853704  0.61995431  0.18722197     0.13600
H408        H  0.71334604  0.62539358  0.10664890     0.13600
H409        H  0.66207018  0.49553584  0.24026560     0.26800
H410        H  0.80108055  0.49503804  0.10300329     0.26800
N411        N  0.32196530  0.49754797  0.67305963    -0.35900
N412        N  0.25248813  0.61057583  0.72027585    -0.56500
N413        N  0.20976057  0.49204508  0.80563496    -0.35900
N414        N  0.25537706  0.39575548  0.72748561    -0.56500
C415        C  0.31305114  0.54166638  0.64046321     0.27600
C416        C  0.31043303  0.45204603  0.64386187     0.27600
C417        C  0.17906817  0.53586572  0.79007382     0.27600
C418        C  0.18044879  0.44699796  0.79261650     0.27600
C419        C  0.30743819  0.61105092  0.70805421     0.36300
C420        C  0.24744144  0.60240270  0.77450828     0.36300
C421        C  0.30854027  0.38663464  0.71410720     0.36300
C422        C  0.24880722  0.38112808  0.77978135     0.36300
C423        C  0.29132386  0.52355522  0.59157253    -0.21200
C424        C  0.28983061  0.46726314  0.59366962    -0.21200
C425        C  0.13260930  0.51845222  0.76187167    -0.21200
C426        C  0.13285771  0.46205280  0.76424716    -0.21200
C427        C  0.33756911  0.59700667  0.75422746    -0.22300
C428        C  0.29935461  0.58910839  0.79552044    -0.22300
C429        C  0.33835458  0.37047604  0.76014730    -0.22300
C430        C  0.29953068  0.36545370  0.80207214    -0.22300
C431        C  0.32522463  0.59696901  0.65573416    -0.17600
C432        C  0.32614099  0.39799981  0.66080905    -0.17600
C433        C  0.19856766  0.39280124  0.80582482    -0.17600
C434        C  0.19537381  0.59068900  0.79853694    -0.17600
H435        H  0.27452332  0.54788229  0.55936637     0.15300
H436        H  0.27330255  0.44019962  0.56324194     0.15300
H437        H  0.10354579  0.54370464  0.73937130     0.15300
H438        H  0.10338067  0.43507770  0.74505024     0.15300
H439        H  0.38125918  0.58578115  0.75573804     0.13600
H440        H  0.30826319  0.57155812  0.83501969     0.13600
H441        H  0.38292408  0.36421268  0.76351005     0.13600
H442        H  0.30830590  0.35577642  0.84425324     0.13600
H443        H  0.34055342  0.49778557  0.71157358     0.26800
H444        H  0.24728289  0.49259607  0.82733044     0.26800
C445        C  0.85598950  0.63598468  0.83471962    -0.01800
O446        O  0.93344487  0.58451797  0.85360978    -0.74600
O447        O  0.86103206  0.56955531  0.91073606    -0.53500
C448        C  0.88608044  0.59629448  0.87138083     0.79100
O449        O  0.08302001  0.40297984  0.85385666    -0.59200
O450        O  0.15361507  0.41647914  0.91383449    -0.52300
C451        C  0.12972167  0.39086836  0.87303668     0.71100
O452        O  0.93260900  0.36860578  0.89199033    -0.73800
O453        O  0.86212608  0.42904253  0.90186096    -0.54300
C454        C  0.88592971  0.38698252  0.87830789     0.77100
O455        O  0.09295753  0.61759421  0.90269677    -0.58900
O456        O  0.16043547  0.55489849  0.90250233    -0.52000
C457        C  0.13497270  0.59677389  0.88066758     0.73700
Zr458      Zr  0.01101217  0.57073367  0.90413604     2.54700
O459        O  0.03563193  0.55269414  0.81075884    -0.79500
O460        O  0.99093458  0.66246541  0.93427683    -0.92900
Zr461      Zr  0.00806505  0.42234739  0.90398403     2.64700
O462        O  0.98577731  0.44705925  0.81174682    -0.97900
O463        O  0.04415325  0.33400525  0.92817285    -0.79900
O464        O  0.95080293  0.49720669  0.90030804    -0.83300
O465        O  0.06766739  0.49540292  0.90114665    -2.18000
O466        O  0.08088712  0.58327536  0.10350677    -0.66700
O467        O  0.14945284  0.57012870  0.04109140    -0.51200
C468        C  0.12609633  0.59612384  0.08198965     0.72100
O469        O  0.92902948  0.41316559  0.10365219    -0.59600
O470        O  0.85881592  0.42375608  0.04267667    -0.51600
C471        C  0.88293468  0.39885450  0.08398180     0.73900
O472        O  0.09313413  0.37198901  0.04357690    -0.71000
O473        O  0.16242001  0.43105758  0.04826986    -0.49700
C474        C  0.13470930  0.39041706  0.06833259     0.75300
O475        O  0.93351947  0.61959556  0.06120684    -0.66300
O476        O  0.86147007  0.56278128  0.04689277    -0.53500
C477        C  0.88594969  0.60316584  0.07217671     0.73700
Zr478      Zr  0.00638772  0.56306731  0.05311157     2.77500
O479        O  0.97830211  0.53978297  0.14523331    -0.97100
O480        O  0.01891261  0.65746153  0.03262186    -0.77900
Zr481      Zr  0.00878638  0.41593564  0.05308779     2.70100
O482        O  0.03917632  0.43546994  0.14537470    -0.79100
O483        O  0.98811132  0.32134233  0.03254321    -0.98200
Zr484      Zr  0.89091442  0.49497463  0.97570188     2.21500
Zr485      Zr  0.12643446  0.49331824  0.97710277     2.11100
O486        O  0.06747869  0.49041647  0.05401566    -2.46900
O487        O  0.94798196  0.49015383  0.05373911    -0.78900
O488        O  0.06726973  0.56854552  0.98040268    -0.71100
O489        O  0.94985118  0.41975398  0.97853325    -2.32100
O490        O  0.95079027  0.56850875  0.97630516    -2.28300
O491        O  0.06632065  0.41875734  0.97762070    -0.72900
H492        H  0.08929371  0.49579124  0.86820471     0.79100
H493        H  0.92575144  0.38881333  0.98043928     0.80200
H494        H  0.09000252  0.49030595  0.08651513     0.82400
H495        H  0.92870617  0.60106014  0.97311453     0.80000
H496        H  0.01095268  0.31092021  0.93115967     0.43100
H497        H  0.02261691  0.30381930  0.01941659     0.42100
H498        H  0.00586894  0.44800634  0.16544809     0.41700
H499        H  0.01190922  0.54196468  0.16856560     0.39700
H500        H  0.05743371  0.66029931  0.01922660     0.42800
H501        H  0.95812443  0.67561332  0.91433298     0.37600
H502        H  0.00127684  0.54082955  0.79208731     0.43700
H503        H  0.01974478  0.44404091  0.78930974     0.40100
H504        H  0.95356963  0.56926271  0.15734803     0.45000
H505        H  0.02242525  0.68710808  0.92797365     0.43800
H506        H  0.96232669  0.41683692  0.80085596     0.43900
H507        H  0.96028659  0.31608604  0.00356041     0.44200
C508        C  0.85264747  0.35866502  0.11968100    -0.01800
C509        C  0.15962334  0.35077295  0.83739556    -0.01800
C510        C  0.16030530  0.63207060  0.83642393    -0.01800
C511        C  0.85707497  0.35138461  0.83694537    -0.01800
C512        C  0.85682255  0.63869623  0.11277439    -0.01800
N513        N  0.68313503  0.49520584  0.67722512    -0.35900
N514        N  0.76070930  0.59703843  0.72656439    -0.56500
N515        N  0.80644841  0.49384170  0.80772340    -0.35900
N516        N  0.75513847  0.39975582  0.72924325    -0.56500
C517        C  0.70241772  0.53898386  0.65002898     0.27600
C518        C  0.69563316  0.45059770  0.64741072     0.27600
C519        C  0.83551267  0.53838695  0.79193046     0.27600
C520        C  0.83570752  0.44889980  0.79264315     0.27600
C521        C  0.70705015  0.60647019  0.71524339     0.36300
C522        C  0.76790461  0.60639304  0.77960840     0.36300
C523        C  0.70269046  0.38530803  0.71648540     0.36300
C524        C  0.76578397  0.38386538  0.78078644     0.36300
C525        C  0.73244615  0.52188563  0.60540799    -0.21200
C526        C  0.72715540  0.46570565  0.60288940    -0.21200
C527        C  0.88196761  0.52179385  0.76296422    -0.21200
C528        C  0.88043869  0.46529571  0.76132157    -0.21200
C529        C  0.67794868  0.61749084  0.76291177    -0.22300
C530        C  0.71767842  0.61892054  0.80431450    -0.22300
C531        C  0.67705018  0.36502452  0.76301910    -0.22300
C532        C  0.71808120  0.36209792  0.80352852    -0.22300
C533        C  0.68704042  0.59345795  0.66366714    -0.17600
C534        C  0.68072519  0.39726359  0.66396423    -0.17600
C535        C  0.81826803  0.39419340  0.80434837    -0.17600
C536        C  0.81847981  0.59346329  0.80343332    -0.17600
H537        H  0.75464650  0.54756860  0.57712614     0.15300
H538        H  0.74561620  0.43933967  0.57273262     0.15300
H539        H  0.91152751  0.54771155  0.74240444     0.15300
H540        H  0.90675213  0.43952490  0.73663370     0.15300
H541        H  0.63328652  0.62173778  0.76757967     0.13600
H542        H  0.71001008  0.62402000  0.84742750     0.13600
H543        H  0.63361313  0.35444871  0.76770620     0.13600
H544        H  0.71228326  0.34939215  0.84530416     0.13600
H545        H  0.65853070  0.49603207  0.71230427     0.26800
H546        H  0.76968879  0.49412114  0.83047333     0.26800
C547        C  0.15638948  0.63707016  0.11497645    -0.01800
C548        C  0.15766408  0.35430477  0.11275818    -0.01800
N549        N  0.33603582  0.99693098  0.79184544    -0.35900
N550        N  0.25036471  0.09904708  0.72585925    -0.56500
N551        N  0.17218278  0.99798631  0.64836016    -0.35900
N552        N  0.23961930  0.91208709  0.72993503    -0.56500
C553        C  0.31244985  0.04467744  0.81008897     0.27600
C554        C  0.30788315  0.95297902  0.81287577     0.27600
C555        C  0.20044645  0.04176163  0.62676639     0.27600
C556        C  0.19148661  0.94929550  0.62668855     0.27600
C557        C  0.30363677  0.11205348  0.74016438     0.36300
C558        C  0.24163706  0.11646793  0.67388804     0.36300
C559        C  0.27265010  0.87819112  0.76125211     0.36300
C560        C  0.21908636  0.88033835  0.68906995     0.36300
C561        C  0.26174462  0.03042946  0.83351826    -0.21200
C562        C  0.25898491  0.97410480  0.83491222    -0.21200
C563        C  0.24738880  0.01884939  0.60217459    -0.21200
C564        C  0.24139875  0.96261870  0.60130386    -0.21200
C565        C  0.33094120  0.13127264  0.69431066    -0.22300
C566        C  0.29169773  0.13480148  0.65277647    -0.22300
C567        C  0.26771915  0.82683031  0.74159227    -0.22300
C568        C  0.24560439  0.83307686  0.69101253    -0.22300
C569        C  0.32787677  0.09924996  0.79226128    -0.17600
C570        C  0.31472031  0.89510219  0.79938604    -0.17600
C571        C  0.18119299  0.89380939  0.64646043    -0.17600
C572        C  0.19548732  0.10007454  0.64165134    -0.17600
H573        H  0.22912748  0.05664148  0.84808288     0.15300
H574        H  0.22353486  0.95101635  0.84893197     0.15300
H575        H  0.28387910  0.04017004  0.58801731     0.15300
H576        H  0.27271250  0.93428933  0.58730274     0.15300
H577        H  0.37484696  0.13984463  0.69020524     0.13600
H578        H  0.29992662  0.14571530  0.61083451     0.13600
H579        H  0.28520628  0.78979525  0.75642947     0.13600
H580        H  0.25612109  0.81032094  0.65549112     0.13600
H581        H  0.36364729  0.99538840  0.75934754     0.26800
H582        H  0.15144487  0.00100987  0.68515904     0.26800
N583        N  0.50724581  0.80126359  0.14005860    -0.35900
N584        N  0.40151252  0.73706419  0.20900129    -0.56500
N585        N  0.51279425  0.65870524  0.29191841    -0.35900
N586        N  0.59927534  0.73738953  0.22175183    -0.56500
C587        C  0.46187560  0.83171658  0.15510877     0.27600
C588        C  0.55348712  0.82385484  0.16349797     0.27600
C589        C  0.46895510  0.69108087  0.30608139     0.27600
C590        C  0.55999286  0.68147770  0.31289907     0.27600
C591        C  0.38752737  0.78921021  0.19797530     0.36300
C592        C  0.39158671  0.72917668  0.26277336     0.36300
C593        C  0.63210119  0.76724645  0.18830667     0.36300
C594        C  0.63386985  0.70859467  0.25506047     0.36300
C595        C  0.47986181  0.87108167  0.19136726    -0.21200
C596        C  0.53710913  0.86725988  0.19523825    -0.21200
C597        C  0.48894857  0.73521598  0.33509986    -0.21200
C598        C  0.54579984  0.72954702  0.33844431    -0.21200
C599        C  0.37717086  0.81587400  0.24690921    -0.22300
C600        C  0.37657958  0.77740935  0.28732612    -0.22300
C601        C  0.68706931  0.75668854  0.20130147    -0.22300
C602        C  0.68791224  0.72126799  0.24389629    -0.22300
C603        C  0.40418767  0.81611443  0.14998807    -0.17600
C604        C  0.61134177  0.80938987  0.15385671    -0.17600
C605        C  0.61546501  0.67103662  0.29461965    -0.17600
C606        C  0.41097492  0.68363617  0.29107255    -0.17600
H607        H  0.45396936  0.89866918  0.21447255     0.15300
H608        H  0.56360913  0.89325027  0.21928688     0.15300
H609        H  0.46547898  0.76897531  0.35132322     0.15300
H610        H  0.57401930  0.76002435  0.35342115     0.15300
H611        H  0.37197151  0.85906546  0.25296650     0.13600
H612        H  0.37126676  0.78492531  0.33040903     0.13600
H613        H  0.72325378  0.77797454  0.18927560     0.13600
H614        H  0.72454357  0.70651034  0.26380078     0.13600
H615        H  0.50666144  0.76702934  0.11508179     0.26800
H616        H  0.51104248  0.62533799  0.26583546     0.26800
N617        N  0.50760699  0.19614164  0.79912670    -0.35900
N618        N  0.59758000  0.24837909  0.72563659    -0.56500
N619        N  0.50643886  0.33546286  0.64722571    -0.35900
N620        N  0.41669447  0.25327705  0.72649246    -0.56500
C621        C  0.55307922  0.16533021  0.78540552     0.27600
C622        C  0.46115815  0.16803386  0.78357752     0.27600
C623        C  0.55180855  0.30246596  0.63852826     0.27600
C624        C  0.45938193  0.30647345  0.63473241     0.27600
C625        C  0.63122301  0.22082846  0.76013018     0.36300
C626        C  0.63087155  0.27614519  0.69117596     0.36300
C627        C  0.38325108  0.22494396  0.76042865     0.36300
C628        C  0.38302663  0.28065839  0.69159074     0.36300
C629        C  0.53503937  0.12043789  0.75709618    -0.21200
C630        C  0.47751531  0.12155428  0.75649264    -0.21200
C631        C  0.53321811  0.25205219  0.62194453    -0.21200
C632        C  0.47594126  0.25444154  0.61990416    -0.21200
C633        C  0.68596379  0.23300492  0.74723683    -0.22300
C634        C  0.68550277  0.26629391  0.70319827    -0.22300
C635        C  0.32848305  0.23557643  0.74696400    -0.22300
C636        C  0.32850549  0.26906441  0.70277309    -0.22300
C637        C  0.61111902  0.17855114  0.79402054    -0.17600
C638        C  0.40345732  0.18242665  0.79402668    -0.17600
C639        C  0.40299789  0.31777304  0.65256562    -0.17600
C640        C  0.60988307  0.31282133  0.65273807    -0.17600
H641        H  0.56062611  0.09076861  0.73724870     0.15300
H642        H  0.45058991  0.09189175  0.73767882     0.15300
H643        H  0.55859369  0.21635088  0.61471485     0.15300
H644        H  0.44877017  0.22034999  0.61215509     0.15300
H645        H  0.72380827  0.21440649  0.75930302     0.13600
H646        H  0.72195645  0.28269482  0.68488123     0.13600
H647        H  0.29186614  0.21560145  0.76011982     0.13600
H648        H  0.29198220  0.28422879  0.68306637     0.13600
H649        H  0.50817415  0.23281526  0.82033272     0.26800
H650        H  0.50758562  0.37300348  0.66671232     0.26800
C651        C  0.65145556  0.13804011  0.82628623    -0.01800
O652        O  0.63271829  0.06198716  0.87688798    -0.74600
O653        O  0.57401388  0.13254833  0.89494491    -0.53500
C654        C  0.61420168  0.10862897  0.86689367     0.79100
O655        O  0.37805362  0.91994008  0.88872160    -0.59200
O656        O  0.43554725  0.84815131  0.89844446    -0.52300
C657        C  0.39496526  0.87450357  0.87327300     0.71100
O658        O  0.42082882  0.06945439  0.84396624    -0.73800
O659        O  0.43417450  0.13750227  0.90442746    -0.54300
C660        C  0.40761949  0.11442209  0.86364802     0.77100
O661        O  0.59066513  0.91840761  0.84623703    -0.58900
O662        O  0.57897446  0.84890039  0.90471055    -0.52000
C663        C  0.60424462  0.87294915  0.86372583     0.73700
Zr664      Zr  0.58425027  0.98845318  0.90338051     2.54700
O665        O  0.56124710  0.99601697  0.80826073    -0.79500
O666        O  0.67817972  0.95732462  0.92330551    -0.92900
Zr667      Zr  0.43289077  0.99438573  0.89502135     2.64700
O668        O  0.45498549  0.96987241  0.80117459    -0.97900
O669        O  0.33591460  0.00808010  0.91405259    -0.79900
O670        O  0.51069859  0.04905151  0.89770062    -0.83300
O671        O  0.50564551  0.93448205  0.89725296    -2.18000
O672        O  0.59335812  0.91980173  0.10201151    -0.66700
O673        O  0.58051002  0.85200346  0.04098932    -0.51200
C674        C  0.60652367  0.87520685  0.08223528     0.72100
O675        O  0.41844864  0.06670854  0.10026041    -0.59600
O676        O  0.43408508  0.13612046  0.04168151    -0.51600
C677        C  0.40722535  0.11309750  0.08247923     0.73900
O678        O  0.37693677  0.91390025  0.04500476    -0.71000
O679        O  0.43778150  0.84503721  0.04375349    -0.49700
C680        C  0.39657740  0.87171338  0.06623422     0.75300
O681        O  0.61762695  0.06470288  0.08157573    -0.66300
O682        O  0.57855255  0.13940550  0.04268153    -0.53500
C683        C  0.61359335  0.11444289  0.07601699     0.73700
Zr684      Zr  0.57437627  0.99174035  0.05076945     2.77500
O685        O  0.54627832  0.00847408  0.14501778    -0.97100
O686        O  0.67195274  0.98514565  0.02794452    -0.77900
Zr687      Zr  0.42463645  0.99340886  0.04473653     2.70100
O688        O  0.44136855  0.96353849  0.13769460    -0.79100
O689        O  0.32697736  0.01025477  0.02732695    -0.98200
Zr690      Zr  0.50768019  0.10729795  0.97254509     2.21500
Zr691      Zr  0.50429431  0.87684193  0.97243441     2.11100
O692        O  0.49938544  0.93437584  0.04862407    -2.46900
O693        O  0.50076052  0.05072962  0.04916231    -0.78900
O694        O  0.58396818  0.93166926  0.97837573    -0.71100
O695        O  0.42856576  0.05155991  0.97002587    -2.32100
O696        O  0.58350578  0.04739686  0.97618676    -2.28300
O697        O  0.42865328  0.93766054  0.96941621    -0.72900
H698        H  0.50114112  0.91305022  0.86485159     0.79100
H699        H  0.39640209  0.07447400  0.96944429     0.80200
H700        H  0.49844918  0.91277177  0.08130015     0.82400
H701        H  0.61817084  0.06669218  0.97740287     0.80000
H702        H  0.33042226  0.04765140  0.91508086     0.43100
H703        H  0.31345687  0.98277100  0.00158037     0.42100
H704        H  0.45171298  0.99545417  0.15972261     0.41700
H705        H  0.55558399  0.97742310  0.16895828     0.39700
H706        H  0.67886685  0.94587093  0.02427690     0.42800
H707        H  0.70229497  0.98947381  0.92473874     0.37600
H708        H  0.54050942  0.03038597  0.80560349     0.43700
H709        H  0.42700404  0.94311653  0.78977281     0.40100
H710        H  0.56730457  0.03925902  0.15960266     0.45000
H711        H  0.69071599  0.93640705  0.89154429     0.43800
H712        H  0.45097370  0.00176598  0.77700744     0.43900
H713        H  0.32303693  0.04534760  0.00889027     0.44200
C714        C  0.65003227  0.84783036  0.11672428    -0.01800
C715        C  0.35728186  0.84936190  0.83000022    -0.01800
C716        C  0.36426674  0.14342024  0.82976116    -0.01800
C717        C  0.64669188  0.84562336  0.82803991    -0.01800
C718        C  0.36015005  0.84723010  0.10970476    -0.01800
N719        N  0.50233380  0.80628157  0.80715358    -0.35900
N720        N  0.38935791  0.73527699  0.73434817    -0.56500
N721        N  0.50254433  0.65601163  0.65367143    -0.35900
N722        N  0.59238258  0.73656957  0.72599503    -0.56500
C723        C  0.45825559  0.83321712  0.78373674     0.27600
C724        C  0.54988588  0.82345003  0.78192604     0.27600
C725        C  0.45783089  0.68873506  0.64072987     0.27600
C726        C  0.55039179  0.68062847  0.63521048     0.27600
C727        C  0.38273183  0.78958762  0.74148347     0.36300
C728        C  0.37440718  0.72360349  0.68194026     0.36300
C729        C  0.62618487  0.76428534  0.76024059     0.36300
C730        C  0.62619341  0.70834228  0.69230324     0.36300
C731        C  0.47872057  0.86485956  0.74136880    -0.21200
C732        C  0.53578549  0.85934854  0.74090630    -0.21200
C733        C  0.47821874  0.73486005  0.61505444    -0.21200
C734        C  0.53534075  0.72992476  0.61212966    -0.21200
C735        C  0.37154720  0.81336823  0.69142992    -0.22300
C736        C  0.36305854  0.77193324  0.65505131    -0.22300
C737        C  0.68086155  0.75186893  0.74828216    -0.22300
C738        C  0.68069078  0.71964643  0.70389885    -0.22300
C739        C  0.40032605  0.81863718  0.78839702    -0.17600
C740        C  0.60661901  0.80672107  0.79389457    -0.17600
C741        C  0.60691334  0.67058764  0.65397057    -0.17600
C742        C  0.39862232  0.67991161  0.65318756    -0.17600
H743        H  0.45475502  0.88857653  0.71240867     0.15300
H744        H  0.56318639  0.87770957  0.71180477     0.15300
H745        H  0.45490736  0.76932172  0.59988001     0.15300
H746        H  0.56331310  0.76128330  0.59830672     0.15300
H747        H  0.36901710  0.85627893  0.68223867     0.13600
H748        H  0.35779653  0.77744340  0.61161368     0.13600
H749        H  0.71832234  0.77009645  0.76132041     0.13600
H750        H  0.71763548  0.70532887  0.68459495     0.13600
H751        H  0.49999182  0.77655234  0.83745713     0.26800
H752        H  0.50073245  0.62099959  0.67763427     0.26800
C753        C  0.36653188  0.14308578  0.11876969    -0.01800
C754        C  0.65584590  0.14254498  0.11189813    -0.01800
N755        N  0.00246307  0.81094167  0.30659611    -0.35900
N756        N  0.11256215  0.73300860  0.23015403    -0.56500
N757        N  0.00776022  0.65956793  0.15474657    -0.35900
N758        N  0.91421995  0.74132250  0.22330613    -0.56500
C759        C  0.04814835  0.83231869  0.28128198     0.27600
C760        C  0.95608101  0.82912887  0.27933695     0.27600
C761        C  0.05298666  0.68645191  0.13366056     0.27600
C762        C  0.95928743  0.68486384  0.13728454     0.27600
C763        C  0.12437511  0.78584945  0.24118942     0.36300
C764        C  0.13064196  0.72249109  0.17854660     0.36300
C765        C  0.87974987  0.77384266  0.25289470     0.36300
C766        C  0.88187605  0.70484872  0.19654879     0.36300
C767        C  0.02953430  0.86257403  0.23669462    -0.21200
C768        C  0.97213927  0.86041185  0.23554130    -0.21200
C769        C  0.03234339  0.73405499  0.10998521    -0.21200
C770        C  0.97485549  0.73259938  0.11155608    -0.21200
C771        C  0.14035769  0.81065934  0.19293884    -0.22300
C772        C  0.14717098  0.77069929  0.15466557    -0.22300
C773        C  0.82584882  0.75884389  0.24409693    -0.22300
C774        C  0.82722450  0.71380596  0.21174863    -0.22300
C775        C  0.10524048  0.81440693  0.28830261    -0.17600
C776        C  0.89876219  0.81426672  0.28928971    -0.17600
C777        C  0.90135805  0.67228446  0.15198304    -0.17600
C778        C  0.11189156  0.67805011  0.14707321    -0.17600
H779        H  0.05454908  0.88193218  0.20597843     0.15300
H780        H  0.94507754  0.87846683  0.20502815     0.15300
H781        H  0.05600393  0.76739806  0.09356871     0.15300
H782        H  0.94848469  0.76502934  0.09735628     0.15300
H783        H  0.14555341  0.85354005  0.18546103     0.13600
H784        H  0.15619038  0.77763806  0.11219676     0.13600
H785        H  0.78904165  0.77652988  0.26091886     0.13600
H786        H  0.79033548  0.69705520  0.19525037     0.13600
H787        H  0.00294128  0.78308165  0.33873836     0.26800
H788        H  0.01075945  0.62992720  0.18484558     0.26800
N789        N  0.67736583  0.99710204  0.14806817    -0.35900
N790        N  0.76858227  0.08749666  0.21651737    -0.56500
N791        N  0.84126976  0.99974336  0.29593864    -0.35900
N792        N  0.76477443  0.89713899  0.21679104    -0.56500
C793        C  0.70877852  0.04050398  0.13049292     0.27600
C794        C  0.70127087  0.94862170  0.13155429     0.27600
C795        C  0.81589050  0.04765504  0.31394142     0.27600
C796        C  0.81325534  0.95413393  0.31522101     0.27600
C797        C  0.74260566  0.11885797  0.17821169     0.36300
C798        C  0.79556054  0.12174500  0.25099208     0.36300
C799        C  0.71151155  0.88323864  0.20346796     0.36300
C800        C  0.77511351  0.87797081  0.26787274     0.36300
C801        C  0.75786083  0.01848029  0.11002721    -0.21200
C802        C  0.75316199  0.96221357  0.11017179    -0.21200
C803        C  0.76514197  0.03143474  0.33533818    -0.21200
C804        C  0.76366347  0.97492048  0.33664274    -0.21200
C805        C  0.75642272  0.17205764  0.18712878    -0.22300
C806        C  0.78605393  0.17422983  0.23459784    -0.22300
C807        C  0.68577440  0.86236245  0.24926697    -0.22300
C808        C  0.72606241  0.85785777  0.28939284    -0.22300
C809        C  0.70086827  0.09918783  0.14161109    -0.17600
C810        C  0.68629051  0.89435259  0.15164279    -0.17600
C811        C  0.82035742  0.89541254  0.30057991    -0.17600
C812        C  0.82660340  0.10512359  0.29761457    -0.17600
H813        H  0.79417437  0.04097554  0.09710004     0.15300
H814        H  0.78621873  0.93509248  0.09834212     0.15300
H815        H  0.73082793  0.05789224  0.34625094     0.15300
H816        H  0.72828916  0.95149945  0.35017148     0.15300
H817        H  0.74131322  0.20654887  0.16644999     0.13600
H818        H  0.79315139  0.21077070  0.25692691     0.13600
H819        H  0.64235095  0.85264900  0.25438548     0.13600
H820        H  0.71888290  0.84568275  0.33113233     0.13600
H821        H  0.64533739  0.99991403  0.17619110     0.26800
H822        H  0.87025649  0.99822848  0.26492515     0.26800
N823        N  0.82592025  0.20142707  0.47437800    -0.35900
N824        N  0.75007263  0.25125740  0.57581584    -0.56500
N825        N  0.70230291  0.33629066  0.47410422    -0.35900
N826        N  0.75153904  0.25142374  0.34974591    -0.56500
C827        C  0.81431440  0.17123115  0.51959718     0.27600
C828        C  0.81462882  0.17091294  0.42927719     0.27600
C829        C  0.67587768  0.31784661  0.52026461     0.27600
C830        C  0.67635484  0.31522478  0.42890788     0.27600
C831        C  0.80409076  0.23935202  0.58637169     0.36300
C832        C  0.74076626  0.30353371  0.59024898     0.36300
C833        C  0.80591260  0.23993866  0.35991642     0.36300
C834        C  0.74262859  0.30550335  0.35645163     0.36300
C835        C  0.79151849  0.12277577  0.50333536    -0.21200
C836        C  0.79148373  0.12265031  0.44669716    -0.21200
C837        C  0.64421423  0.27395989  0.50419341    -0.21200
C838        C  0.64329531  0.27315643  0.44705289    -0.21200
C839        C  0.83136439  0.28649415  0.60156261    -0.22300
C840        C  0.79070948  0.32682937  0.60603552    -0.22300
C841        C  0.83079367  0.28657343  0.37905857    -0.22300
C842        C  0.79183801  0.32774642  0.37572134    -0.22300
C843        C  0.82677599  0.18731092  0.57485594    -0.17600
C844        C  0.82451754  0.18688055  0.37330415    -0.17600
C845        C  0.68975946  0.32631734  0.37204605    -0.17600
C846        C  0.69065706  0.33096748  0.57661808    -0.17600
H847        H  0.77292538  0.09305565  0.52985417     0.15300
H848        H  0.77249880  0.09236871  0.42161794     0.15300
H849        H  0.62278699  0.24604067  0.53090870     0.15300
H850        H  0.62097096  0.24455582  0.42191393     0.15300
H851        H  0.87567440  0.29151496  0.60801232     0.13600
H852        H  0.79796927  0.36884568  0.61610110     0.13600
H853        H  0.87121371  0.28953914  0.39844289     0.13600
H854        H  0.79748274  0.36764252  0.39274181     0.13600
H855        H  0.84496452  0.23934813  0.47506290     0.26800
H856        H  0.73506787  0.36405361  0.47355249     0.26800
N857        N  0.16810503  0.81735591  0.46914292    -0.35900
N858        N  0.26962158  0.75282662  0.36836184    -0.56500
N859        N  0.34347259  0.67190218  0.47104095    -0.35900
N860        N  0.26188403  0.74891078  0.57248011    -0.56500
C861        C  0.19979929  0.83037904  0.42482841     0.27600
C862        C  0.19486750  0.83325248  0.51589892     0.27600
C863        C  0.31841033  0.65383736  0.42345836     0.27600
C864        C  0.31381456  0.65327502  0.51566011     0.27600
C865        C  0.21547876  0.76403611  0.35578626     0.36300
C866        C  0.28144526  0.70269534  0.34862599     0.36300
C867        C  0.20643465  0.75900262  0.57707102     0.36300
C868        C  0.27197810  0.69778974  0.59092614     0.36300
C869        C  0.24982818  0.85106380  0.44375701    -0.21200
C870        C  0.24682779  0.85261308  0.50048244    -0.21200
C871        C  0.26826503  0.63049848  0.43926071    -0.21200
C872        C  0.26552889  0.63003611  0.49485351    -0.21200
C873        C  0.19059372  0.71902725  0.33361038    -0.22300
C874        C  0.23172538  0.68000397  0.33009983    -0.22300
C875        C  0.17911617  0.71148430  0.58999364    -0.22300
C876        C  0.22066046  0.67337990  0.60101862    -0.22300
C877        C  0.18826951  0.81312414  0.36917639    -0.17600
C878        C  0.18278431  0.81135001  0.56929344    -0.17600
C879        C  0.31947188  0.66799121  0.57355804    -0.17600
C880        C  0.32801041  0.67135102  0.36699742    -0.17600
H881        H  0.28589528  0.86102160  0.41938414     0.15300
H882        H  0.28113095  0.86189063  0.52750886     0.15300
H883        H  0.23460959  0.61682521  0.41357975     0.15300
H884        H  0.22993765  0.61502573  0.51681525     0.15300
H885        H  0.14666259  0.71302122  0.32634603     0.13600
H886        H  0.22476666  0.63801504  0.31942522     0.13600
H887        H  0.13458951  0.70556868  0.59349371     0.13600
H888        H  0.21374107  0.63112922  0.61088973     0.13600
H889        H  0.13172752  0.79430153  0.46756429     0.26800
H890        H  0.37378651  0.70155110  0.47291997     0.26800
C891        C  0.86264980  0.15164771  0.33237904    -0.01800
O892        O  0.92177732  0.07943097  0.34415929    -0.74600
O893        O  0.92907016  0.14260815  0.41087848    -0.53500
C894        C  0.90527268  0.12203520  0.36737437     0.79100
O895        O  0.87958543  0.92172656  0.56458376    -0.59200
O896        O  0.93798307  0.85113908  0.54657492    -0.52300
C897        C  0.89758229  0.87450174  0.57425991     0.71100
O898        O  0.88845815  0.07310436  0.56908788    -0.73800
O899        O  0.93899843  0.14656438  0.54386979    -0.54300
C900        C  0.90133063  0.12196154  0.57388997     0.77100
O901        O  0.92106077  0.91771161  0.34181292    -0.58900
O902        O  0.92918328  0.85189890  0.40669378    -0.52000
C903        C  0.90427363  0.87497804  0.36471258     0.73700
Zr904      Zr  0.94735106  0.99765190  0.38081679     2.54700
O905        O  0.85165181  0.99756140  0.41065524    -0.79500
O906        O  0.96878667  0.00115383  0.28237280    -0.92900
Zr907      Zr  0.91866327  0.99714849  0.52710557     2.64700
O908        O  0.81766202  0.00745194  0.52868587    -0.97900
O909        O  0.97395343  0.96289746  0.60082823    -0.79900
O910        O  0.93174749  0.05419797  0.45427456    -0.83300
O911        O  0.92772812  0.94134336  0.45447716    -2.18000
O912        O  0.13551078  0.91920751  0.38507939    -0.66700
O913        O  0.06923911  0.85449127  0.39457458    -0.51200
C914        C  0.11242479  0.87620600  0.36985123     0.72100
O915        O  0.09206355  0.07562510  0.60390937    -0.59600
O916        O  0.08566598  0.13881497  0.53642747    -0.51600
C917        C  0.10905402  0.11793471  0.58025613     0.73900
O918        O  0.07763014  0.90984643  0.60434713    -0.71000
O919        O  0.07696737  0.84704310  0.53789656    -0.49700
C920        C  0.09916621  0.86933142  0.58123553     0.75300
O921        O  0.13539243  0.07633269  0.38809933    -0.66300
O922        O  0.07382250  0.14544073  0.40037611    -0.53500
C923        C  0.11512292  0.12174165  0.37436755     0.73700
Zr924      Zr  0.09610902  0.99664891  0.41656777     2.77500
O925        O  0.19709557  0.98408640  0.42425211    -0.97100
O926        O  0.06375017  0.99334336  0.32350219    -0.77900
Zr927      Zr  0.06681663  0.99453555  0.56480280     2.70100
O928        O  0.16008331  0.99213816  0.52960598    -0.79100
O929        O  0.05644981  0.99199291  0.66621001    -0.98200
Zr930      Zr  0.00747239  0.11135773  0.47308587     2.21500
Zr931      Zr  0.00443901  0.88235541  0.47195095     2.11100
O932        O  0.08275488  0.93882990  0.48926399    -2.46900
O933        O  0.08313073  0.05233622  0.49116246    -0.78900
O934        O  0.02191308  0.94038403  0.39811521    -0.71100
O935        O  0.99253377  0.05377326  0.54901010    -2.32100
O936        O  0.02200468  0.05411164  0.39659178    -2.28300
O937        O  0.99047170  0.93902649  0.54744260    -0.72900
H938        H  0.89259229  0.92293903  0.45419530     0.79100
H939        H  0.98986214  0.07340740  0.58282681     0.80200
H940        H  0.11673218  0.91769126  0.49073471     0.82400
H941        H  0.02521728  0.07378645  0.36284629     0.80000
H942        H  0.97652514  0.99548118  0.62343657     0.43100
H943        H  0.07366605  0.96097058  0.68580856     0.42100
H944        H  0.17075926  0.03033952  0.52489354     0.41700
H945        H  0.20424880  0.95328086  0.44918660     0.39700
H946        H  0.05957657  0.95503371  0.31223880     0.42800
H947        H  0.95232162  0.03326715  0.26394251     0.37600
H948        H  0.84298925  0.03525558  0.42042063     0.43700
H949        H  0.80256568  0.98942330  0.49602733     0.40100
H950        H  0.21187381  0.01562195  0.44394140     0.45000
H951        H  0.95510404  0.96865592  0.26325331     0.43800
H952        H  0.80262199  0.98681157  0.55947553     0.43900
H953        H  0.06555155  0.02627509  0.68515189     0.44200
C954        C  0.85968399  0.84760164  0.33149125    -0.01800
C955        C  0.14793728  0.84733420  0.32770408    -0.01800
C956        C  0.14572156  0.84328941  0.61450243    -0.01800
C957        C  0.86429776  0.14957444  0.61563093    -0.01800
C958        C  0.86091663  0.84548311  0.61603178    -0.01800
N959        N  0.81989565  0.79564817  0.47453354    -0.35900
N960        N  0.75060860  0.74522471  0.37735853    -0.56500
N961        N  0.69102908  0.65055958  0.47584654    -0.35900
N962        N  0.74655961  0.74327516  0.57297148    -0.56500
C963        C  0.81390753  0.82813266  0.42966094     0.27600
C964        C  0.80995082  0.82597837  0.51982830     0.27600
C965        C  0.67218388  0.67610348  0.42938333     0.27600
C966        C  0.66791179  0.67366972  0.52160362     0.27600
C967        C  0.80388482  0.75798853  0.36483096     0.36300
C968        C  0.74204963  0.69308275  0.36243188     0.36300
C969        C  0.80024385  0.75576802  0.58507543     0.36300
C970        C  0.73741722  0.69114963  0.58847985     0.36300
C971        C  0.79613421  0.87872763  0.44665723    -0.21200
C972        C  0.79244386  0.87674942  0.50321946    -0.21200
C973        C  0.64624437  0.72360916  0.44690294    -0.21200
C974        C  0.64303658  0.72179878  0.50389915    -0.21200
C975        C  0.83167749  0.71123232  0.34843859    -0.22300
C976        C  0.79178178  0.67053686  0.34462265    -0.22300
C977        C  0.82759281  0.70871399  0.60162193    -0.22300
C978        C  0.78727468  0.66843904  0.60622519    -0.22300
C979        C  0.82556818  0.81074170  0.37482811    -0.17600
C980        C  0.82248961  0.80861846  0.57492592    -0.17600
C981        C  0.68663950  0.66341356  0.57733779    -0.17600
C982        C  0.69196121  0.66521127  0.37397809    -0.17600
H983        H  0.78553781  0.91288049  0.42137576     0.15300
H984        H  0.77671231  0.90785051  0.52968519     0.15300
H985        H  0.63407841  0.75769474  0.42185559     0.15300
H986        H  0.62816591  0.75434091  0.52948798     0.15300
H987        H  0.87578293  0.70674660  0.34036843     0.13600
H988        H  0.79939868  0.62865921  0.33375639     0.13600
H989        H  0.87174793  0.70372245  0.60936721     0.13600
H990        H  0.79478467  0.62673820  0.61785342     0.13600
H991        H  0.83517337  0.75584469  0.47447375     0.26800
H992        H  0.72425739  0.62330246  0.47656934     0.26800
C993        C  0.15114467  0.14957997  0.33135765    -0.01800
C994        C  0.15308076  0.14687648  0.61365613    -0.01800
N995        N  0.00501234  0.81175446  0.63799081    -0.35900
N996        N  0.91478220  0.73818510  0.72323321    -0.56500
N997        N  0.00588022  0.65293287  0.79384649    -0.35900
N998        N  0.09547155  0.73753027  0.73112178    -0.56500
C999        C  0.95882892  0.82781710  0.66670419     0.27600
C1000       C  0.05130723  0.82143099  0.66943261     0.27600
C1001       C  0.95869538  0.68043628  0.81021791     0.27600
C1002       C  0.05290518  0.67613540  0.81673028     0.27600
C1003       C  0.88136200  0.77232494  0.69388862     0.36300
C1004       C  0.88136076  0.70296547  0.75069134     0.36300
C1005       C  0.12847705  0.76395119  0.69436176     0.36300
C1006       C  0.12902297  0.70335775  0.76076103     0.36300
C1007       C  0.97665602  0.84539806  0.71765289    -0.21200
C1008       C  0.03418591  0.84207408  0.71911346    -0.21200
C1009       C  0.97721915  0.72905066  0.83202861    -0.21200
C1010       C  0.03489499  0.72620989  0.83625642    -0.21200
C1011       C  0.82674818  0.75927362  0.70397412    -0.22300
C1012       C  0.82683737  0.71369070  0.73596006    -0.22300
C1013       C  0.18095872  0.74218205  0.70082952    -0.22300
C1014       C  0.18211821  0.70936095  0.74411320    -0.22300
C1015       C  0.90168771  0.81205679  0.65631809    -0.17600
C1016       C  0.10875122  0.80622387  0.65740304    -0.17600
C1017       C  0.11162148  0.66679044  0.80200155    -0.17600
C1018       C  0.90036585  0.66934163  0.79501019    -0.17600
H1019       H  0.95021780  0.85660633  0.75154154     0.15300
H1020       H  0.06054851  0.85144584  0.75368635     0.15300
H1021       H  0.95247455  0.76378958  0.84330595     0.15300
H1022       H  0.06121036  0.75915557  0.84934692     0.15300
H1023       H  0.78986922  0.77796885  0.68819349     0.13600
H1024       H  0.78953716  0.69705917  0.75191415     0.13600
H1025       H  0.21708258  0.74338233  0.67725312     0.13600
H1026       H  0.21970865  0.69404881  0.76043507     0.13600
H1027       H  0.00481410  0.79070411  0.60113944     0.26800
H1028       H  0.00584363  0.62555691  0.76158904     0.26800
N1029       N  0.68476160  0.99325605  0.80380148    -0.35900
N1030       N  0.76368382  0.89256830  0.73017153    -0.56500
N1031       N  0.81110471  0.99763509  0.65728837    -0.35900
N1032       N  0.76513320  0.09807532  0.72743108    -0.56500
C1033       C  0.66566853  0.94710082  0.77787092     0.27600
C1034       C  0.66598667  0.03835871  0.77575068     0.27600
C1035       C  0.84310536  0.95053109  0.66266671     0.27600
C1036       C  0.84462901  0.04354784  0.66121863     0.27600
C1037       C  0.71277403  0.87168784  0.74219430     0.36300
C1038       C  0.77518300  0.87997617  0.67740827     0.36300
C1039       C  0.71222482  0.11414713  0.73810377     0.36300
C1040       C  0.77718669  0.11402106  0.67571053     0.36300
C1041       C  0.64078288  0.96433622  0.72946268    -0.21200
C1042       C  0.64161461  0.01994631  0.72788567    -0.21200
C1043       C  0.89523762  0.96761427  0.67861081    -0.21200
C1044       C  0.89658065  0.02472238  0.67667673    -0.21200
C1045       C  0.68969733  0.85275703  0.69359116    -0.22300
C1046       C  0.72960807  0.85600743  0.65352805    -0.22300
C1047       C  0.68843848  0.13300492  0.68968460    -0.22300
C1048       C  0.73019154  0.13549456  0.65108836    -0.22300
C1049       C  0.68041683  0.88982635  0.78760050    -0.17600
C1050       C  0.68169655  0.09499015  0.78386653    -0.17600
C1051       C  0.82820989  0.10139763  0.65001883    -0.17600
C1052       C  0.82571480  0.89330824  0.65127860    -0.17600
H1053       H  0.62607112  0.93969720  0.69629983     0.15300
H1054       H  0.62727375  0.04385209  0.69362788     0.15300
H1055       H  0.92972704  0.94154693  0.68971000     0.15300
H1056       H  0.93242809  0.04940410  0.68537711     0.15300
H1057       H  0.64705400  0.84106643  0.68638459     0.13600
H1058       H  0.72375805  0.84615409  0.61106117     0.13600
H1059       H  0.64485303  0.14209786  0.68237386     0.13600
H1060       H  0.72494784  0.14680392  0.60882753     0.13600
H1061       H  0.71536872  0.99496179  0.83382138     0.26800
H1062       H  0.76890224  0.99836757  0.64658618     0.26800
N1063       N  0.81713391  0.65933480  0.97378296    -0.35900
N1064       N  0.74101077  0.73355900  0.86938910    -0.56500
N1065       N  0.66722380  0.81653782  0.97273161    -0.35900
N1066       N  0.74027144  0.73415894  0.07751955    -0.56500
C1067       C  0.83990809  0.68352687  0.92920618     0.27600
C1068       C  0.83734459  0.68591214  0.01809483     0.27600
C1069       C  0.69481448  0.83453950  0.92743727     0.27600
C1070       C  0.69501864  0.83494393  0.01784991     0.27600
C1071       C  0.79369657  0.72137208  0.85397621     0.36300
C1072       C  0.73216456  0.78582143  0.85451098     0.36300
C1073       C  0.79266077  0.72207033  0.09376907     0.36300
C1074       C  0.73183935  0.78629099  0.09188211     0.36300
C1075       C  0.87268745  0.72658287  0.94571355    -0.21200
C1076       C  0.87177430  0.72758163  0.00132866    -0.21200
C1077       C  0.74281466  0.86090000  0.94477568    -0.21200
C1078       C  0.74274186  0.86139344  0.00061332    -0.21200
C1079       C  0.81985460  0.76867272  0.83721012    -0.22300
C1080       C  0.78072492  0.80889149  0.83583007    -0.22300
C1081       C  0.81907135  0.76901209  0.11058432    -0.22300
C1082       C  0.78024293  0.80900880  0.11140507    -0.22300
C1083       C  0.82278891  0.67580863  0.87412767    -0.17600
C1084       C  0.82137509  0.67724120  0.07367279    -0.17600
C1085       C  0.68706478  0.81665385  0.07325950    -0.17600
C1086       C  0.68664174  0.81608614  0.87193554    -0.17600
H1087       H  0.89415808  0.75543826  0.92028386     0.15300
H1088       H  0.89217685  0.75746099  0.02612246     0.15300
H1089       H  0.77558407  0.87743741  0.91970835     0.15300
H1090       H  0.77590507  0.87730601  0.02554365     0.15300
H1091       H  0.86339383  0.77475477  0.82949230     0.13600
H1092       H  0.78847518  0.85125007  0.82748213     0.13600
H1093       H  0.86244756  0.77518509  0.11888504     0.13600
H1094       H  0.78824556  0.85054635  0.12128277     0.13600
H1095       H  0.78730405  0.62860905  0.97388361     0.26800
H1096       H  0.63409634  0.78920743  0.97292936     0.26800
loop_ 
_geom_bond_atom_site_label_1 
_geom_bond_atom_site_label_2 
_geom_bond_distance 
_geom_bond_site_symmetry_2 
_ccdc_geom_bond_type 
C1            C4   1.495       .  S
C1          C431   1.590       .  S
C1          C742   1.619       .  S
C1          C879   1.652       .  S
O2          Zr14   2.269       .  S
O2            C4   1.257       .  A
O3          Zr40   2.521       .  S
O3            C4   1.312       .  A
O5          Zr17   2.258       .  S
O5            C7   1.258       .  A
O6          Zr41   2.530       .  S
O6            C7   1.312       .  A
C7           C65   1.505       .  S
O8          Zr17   2.249       .  S
O8           C10   1.251       .  A
O9          Zr40   2.522       .  S
O9           C10   1.314       .  A
C10          C69   1.502       .  S
O11         Zr14   2.241       .  S
O11          C13   1.253       .  A
O12         Zr41   2.522       .  S
O12          C13   1.317       .  A
C13          C67   1.486       .  S
Zr14         O15   2.407       .  S
Zr14         O16   2.480       .  S
Zr14         O20   2.304       .  S
Zr14         O21   2.334       .  S
Zr14         O44   2.306       .  S
Zr14         O46   2.290       .  S
O15          H58   0.979       .  S
O16          H57   0.988       .  S
O16          H61   0.988       .  S
Zr17         O18   2.444       .  S
Zr17         O19   2.372       .  S
Zr17         O21   2.255       .  S
Zr17         O20   2.286       .  S
Zr17         O45   2.319       .  S
Zr17         O47   2.293       .  S
O18          H59   0.985       .  S
O18          H62   0.979       .  S
O19          H52   0.974       .  S
O20         Zr40   2.337       .  S
O21         Zr41   2.372       .  S
O21          H48   0.961       .  S
O22         Zr34   2.257       .  S
O22          C24   1.255       .  A
O23         Zr41   2.512       .  S
O23          C24   1.310       .  A
C24          C66   1.502       .  S
O25         Zr37   2.275       .  S
O25          C27   1.256       .  A
O26         Zr40   2.516       .  S
O26          C27   1.309       .  A
C27          C64   1.510       .  S
O28         Zr37   2.302       .  S
O28          C30   1.261       .  A
O29         Zr41   2.515       .  S
O29          C30   1.313       .  A
C30          C68   1.518       .  S
O31         Zr34   2.268       .  S
O31          C33   1.254       .  A
O32         Zr40   2.496       .  S
O32          C33   1.308       .  A
C33          C70   1.494       .  S
Zr34         O35   2.428       .  S
Zr34         O36   2.409       .  S
Zr34         O42   2.297       .  S
Zr34         O43   2.293       .  S
Zr34         O46   2.313       .  S
Zr34         O44   2.294       .  S
O35          H55   0.975       .  S
O35          H60   0.977       .  S
O36          H56   0.990       .  S
Zr37         O38   2.401       .  S
Zr37         O39   2.468       .  S
Zr37         O43   2.313       .  S
Zr37         O42   2.323       .  S
Zr37         O47   2.308       .  S
Zr37         O45   2.301       .  S
O38          H54   0.986       .  S
O39          H53   0.991       .  S
O39          H63   0.989       .  S
Zr40         O43   2.347       .  S
Zr40         O45   2.352       .  S
Zr40         O46   2.373       .  S
Zr41         O42   2.368       .  S
Zr41         O44   2.344       .  S
Zr41         O47   2.335       .  S
O42          H50   0.962       .  S
O45          H49   0.967       .  S
O46          H51   0.965       .  S
C64         C534   1.600       .  S
C64         C640   1.600       .  S
C64         C846   1.666       .  S
C65         C194   1.601       .  S
C65         C230   1.664       .  S
C65         C262   1.604       .  S
C66         C398   1.601       .  S
C66         C605   1.591       .  S
C66         C982   1.655       .  S
C67         C261   1.600       .  S
C67         C606   1.625       .  S
C67         C880   1.663       .  S
C68         C193   1.597       .  S
C68         C397   1.583       .  S
C68         C845   1.633       .  S
C69         C229   1.674       .  S
C69         C432   1.600       .  S
C69         C639   1.587       .  S
C70         C533   1.597       .  S
C70         C741   1.591       .  S
C70         C981   1.659       .  S
N71          C76   1.355       .  A
N71          C75   1.361   1_556  A
N71         H103   1.044       .  S
N72          C79   1.356       .  A
N72          C80   1.357       .  A
N73          C78   1.371       .  A
N73          C77   1.375   1_556  A
N73         H104   1.044       .  S
N74          C81   1.346       .  A
N74          C82   1.347       .  A
C75          C83   1.375       .  A
C75          C91   1.426       .  A
C76          C92   1.435       .  A
C76          C84   1.395       .  A
C77          C85   1.377       .  A
C77          C94   1.447       .  A
C78          C93   1.457       .  A
C78          C86   1.395       .  A
C79          C91   1.410       .  A
C79          C87   1.385       .  A
C80          C94   1.402       .  A
C80          C88   1.382       .  A
C81          C89   1.382       .  A
C81          C92   1.385       .  A
C82          C90   1.379       .  A
C82          C93   1.382       .  A
C83          C84   1.380   1_554  A
C83          H95   1.080       .  S
C84          H96   1.075       .  S
C85          C86   1.385   1_554  A
C85          H97   1.080       .  S
C86          H98   1.080       .  S
C87          C88   1.376       .  A
C87          H99   1.081       .  S
C88         H100   1.082       .  S
C89          C90   1.356       .  A
C89         H101   1.077       .  S
C90         H102   1.067       .  S
C91         C548   1.606       .  S
C92         C509   1.584       .  S
C93         C716   1.604       .  S
C94         C753   1.591       .  S
N105        C110   1.381   1_565  A
N105        C109   1.387       .  A
N105        H137   1.040       .  S
N106        C113   1.369       .  A
N106        C114   1.367       .  A
N107        C112   1.388   1_565  A
N107        C111   1.385       .  A
N107        H138   1.041       .  S
N108        C115   1.372       .  A
N108        C116   1.366       .  A
C109        C117   1.395       .  A
C109        C125   1.480       .  A
C110        C126   1.474       .  A
C110        C118   1.394       .  A
C111        C119   1.391       .  A
C111        C128   1.484       .  A
C112        C127   1.478       .  A
C112        C120   1.391       .  A
C113        C125   1.435       .  A
C113        C121   1.369       .  A
C114        C128   1.440       .  A
C114        C122   1.378       .  A
C115        C123   1.357       .  A
C115        C126   1.438       .  A
C116        C124   1.333       .  A
C116        C127   1.428       .  A
C117        C118   1.393   1_565  A
C117        H129   1.083       .  S
C118        H130   1.082       .  S
C119        C120   1.400   1_565  A
C119        H131   1.078       .  S
C120        H132   1.079       .  S
C121        C122   1.359       .  A
C121        H133   1.066       .  S
C122        H134   1.057       .  S
C123        C124   1.373       .  A
C123        H135   1.072       .  S
C124        H136   1.065       .  S
C125        C718   1.678       .  S
C126        C753   1.689       .  S
C127        C993   1.708       .  S
C128        C955   1.678       .  S
N139        C144   1.368   1_455  A
N139        C143   1.367       .  A
N139        H171   1.044       .  S
N140        C147   1.363       .  A
N140        C148   1.370       .  A
N141        C146   1.377   1_455  A
N141        C145   1.383       .  A
N141        H172   1.038       .  S
N142        C149   1.363       .  A
N142        C150   1.361       .  A
C143        C151   1.390       .  A
C143        C159   1.442       .  A
C144        C160   1.440       .  A
C144        C152   1.379       .  A
C145        C153   1.403       .  A
C145        C162   1.478       .  A
C146        C161   1.463       .  A
C146        C154   1.387       .  A
C147        C159   1.441       .  A
C147        C155   1.367       .  A
C148        C162   1.414       .  A
C148        C156   1.348       .  A
C149        C157   1.383       .  A
C149        C160   1.423       .  A
C150        C158   1.385       .  A
C150        C161   1.415       .  A
C151        C152   1.385   1_455  A
C151        H163   1.080       .  S
C152        H164   1.082       .  S
C153        C154   1.399   1_455  A
C153        H165   1.081       .  S
C154        H166   1.081       .  S
C155        C156   1.329       .  A
C155        H167   1.033       .  S
C156        H168   1.055       .  S
C157        C158   1.378       .  A
C157        H169   1.082       .  S
C158        H170   1.081       .  S
C159        C993   1.620       .  S
C160        C891   1.629       .  S
C161        C508   1.642       .  S
C162        C548   1.675       .  S
N173        C178   1.371       .  A
N173        C177   1.374       .  A
N173        H205   1.044       .  S
N174        C181   1.350       .  A
N174        C182   1.354       .  A
N175        C180   1.370       .  A
N175        C179   1.369       .  A
N175        H206   1.044       .  S
N176        C183   1.367       .  A
N176        C184   1.359       .  A
C177        C185   1.379       .  A
C177        C193   1.453       .  A
C178        C194   1.458       .  A
C178        C186   1.399       .  A
C179        C187   1.387       .  A
C179        C196   1.447       .  A
C180        C195   1.449       .  A
C180        C188   1.387       .  A
C181        C193   1.407       .  A
C181        C189   1.387       .  A
C182        C196   1.424       .  A
C182        C190   1.387       .  A
C183        C191   1.385       .  A
C183        C194   1.417       .  A
C184        C192   1.381       .  A
C184        C195   1.416       .  A
C185        C186   1.366       .  A
C185        H197   1.080       .  S
C186        H198   1.077       .  S
C187        C188   1.374       .  A
C187        H199   1.081       .  S
C188        H200   1.080       .  S
C189        C190   1.380       .  A
C189        H201   1.081       .  S
C190        H202   1.082       .  S
C191        C192   1.371       .  A
C191        H203   1.081       .  S
C192        H204   1.082       .  S
C195        C753   1.634       .  S
C196        C754   1.625       .  S
N207        C212   1.359       .  A
N207        C211   1.360       .  A
N207        H239   1.045       .  S
N208        C215   1.348       .  A
N208        C216   1.348       .  A
N209        C214   1.380       .  A
N209        C213   1.381       .  A
N209        H240   1.044       .  S
N210        C217   1.350       .  A
N210        C218   1.353       .  A
C211        C219   1.375       .  A
C211        C227   1.437       .  A
C212        C228   1.434       .  A
C212        C220   1.381       .  A
C213        C221   1.381       .  A
C213        C230   1.481       .  A
C214        C229   1.477       .  A
C214        C222   1.379       .  A
C215        C227   1.421       .  A
C215        C223   1.391       .  A
C216        C230   1.413       .  A
C216        C224   1.388       .  A
C217        C225   1.391       .  A
C217        C228   1.425       .  A
C218        C226   1.385       .  A
C218        C229   1.415       .  A
C219        C220   1.389       .  A
C219        H231   1.080       .  S
C220        H232   1.068       .  S
C221        C222   1.405       .  A
C221        H233   1.071       .  S
C222        H234   1.075       .  S
C223        C224   1.400       .  A
C223        H235   1.082       .  S
C224        H236   1.081       .  S
C225        C226   1.396       .  A
C225        H237   1.082       .  S
C226        H238   1.081       .  S
C227        C993   1.635       .  S
C228        C994   1.613       .  S
N241        C246   1.373       .  A
N241        C245   1.371       .  A
N241        H273   1.043       .  S
N242        C249   1.350       .  A
N242        C250   1.346       .  A
N243        C248   1.371       .  A
N243        C247   1.363       .  A
N243        H274   1.043       .  S
N244        C251   1.351       .  A
N244        C252   1.350       .  A
C245        C253   1.381       .  A
C245        C261   1.456       .  A
C246        C262   1.459       .  A
C246        C254   1.376       .  A
C247        C255   1.385       .  A
C247        C264   1.453       .  A
C248        C263   1.443       .  A
C248        C256   1.383       .  A
C249        C261   1.400       .  A
C249        C257   1.374       .  A
C250        C264   1.388       .  A
C250        C258   1.364       .  A
C251        C259   1.386       .  A
C251        C262   1.395       .  A
C252        C260   1.382       .  A
C252        C263   1.409       .  A
C253        C254   1.383       .  A
C253        H265   1.064       .  S
C254        H266   1.077       .  S
C255        C256   1.392       .  A
C255        H267   1.082       .  S
C256        H268   1.082       .  S
C257        C258   1.332       .  A
C257        H269   1.053       .  S
C258        H270   1.057       .  S
C259        C260   1.379       .  A
C259        H271   1.082       .  S
C260        H272   1.081       .  S
C263        C548   1.621       .  S
C264        C547   1.594       .  S
N275        C280   1.357   1_556  A
N275        C279   1.355       .  A
N275        H307   1.044       .  S
N276        C283   1.345       .  A
N276        C284   1.350       .  A
N277        C282   1.369   1_556  A
N277        C281   1.371       .  A
N277        H308   1.043       .  S
N278        C285   1.336       .  A
N278        C286   1.340       .  A
C279        C287   1.381       .  A
C279        C295   1.430       .  A
C280        C296   1.424       .  A
C280        C288   1.385       .  A
C281        C289   1.384       .  A
C281        C298   1.463       .  A
C282        C297   1.461       .  A
C282        C290   1.379   1_554  A
C283        C295   1.398       .  A
C283        C291   1.386       .  A
C284        C298   1.393       .  A
C284        C292   1.382       .  A
C285        C293   1.390       .  A
C285        C296   1.397       .  A
C286        C294   1.384       .  A
C286        C297   1.389       .  A
C287        C288   1.387   1_556  A
C287        H299   1.078       .  S
C288        H300   1.077       .  S
C289        C290   1.385       .  A
C289        H301   1.071       .  S
C290        H302   1.072   1_556  S
C291        C292   1.377       .  A
C291        H303   1.082       .  S
C292        H304   1.083       .  S
C293        C294   1.392       .  A
C293        H305   1.082       .  S
C294        H306   1.082       .  S
C295        C510   1.597       .  S
C296        C547   1.594       .  S
C297        C718   1.611       .  S
C298        C715   1.593       .  S
N309        C314   1.375   1_556  A
N309        C313   1.368       .  A
N309        H341   1.044       .  S
N310        C317   1.350       .  A
N310        C318   1.350       .  A
N311        C316   1.363   1_556  A
N311        C315   1.353       .  A
N311        H342   1.045       .  S
N312        C319   1.354       .  A
N312        C320   1.351       .  A
C313        C321   1.390       .  A
C313        C329   1.459       .  A
C314        C330   1.448       .  A
C314        C322   1.385       .  A
C315        C323   1.380       .  A
C315        C332   1.430       .  A
C316        C331   1.436       .  A
C316        C324   1.382   1_554  A
C317        C329   1.405       .  A
C317        C325   1.390       .  A
C318        C332   1.386       .  A
C318        C326   1.380       .  A
C319        C327   1.374       .  A
C319        C330   1.432       .  A
C320        C328   1.350       .  A
C320        C331   1.401       .  A
C321        C322   1.381   1_556  A
C321        H333   1.080       .  S
C322        H334   1.081       .  S
C323        C324   1.383       .  A
C323        H335   1.078       .  S
C324        H336   1.069   1_556  S
C325        C326   1.372       .  A
C325        H337   1.078       .  S
C326        H338   1.081       .  S
C327        C328   1.365       .  A
C327        H339   1.057       .  S
C328        H340   1.066       .  S
C329        C511   1.609       .  S
C330        C508   1.613       .  S
C331        C754   1.610       .  S
C332        C651   1.608       .  S
N343        C348   1.376   1_455  A
N343        C347   1.375       .  A
N343        H375   1.044       .  S
N344        C351   1.361       .  A
N344        C352   1.360       .  A
N345        C350   1.384   1_455  A
N345        C349   1.378       .  A
N345        H376   1.044       .  S
N346        C353   1.362       .  A
N346        C354   1.365       .  A
C347        C355   1.384       .  A
C347        C363   1.460       .  A
C348        C364   1.451       .  A
C348        C356   1.387       .  A
C349        C357   1.385       .  A
C349        C366   1.471       .  A
C350        C365   1.475       .  A
C350        C358   1.384       .  A
C351        C363   1.423       .  A
C351        C359   1.369       .  A
C352        C366   1.431       .  A
C352        C360   1.377       .  A
C353        C361   1.372       .  A
C353        C364   1.428       .  A
C354        C362   1.379       .  A
C354        C365   1.435       .  A
C355        C356   1.381   1_455  A
C355        H367   1.082       .  S
C356        H368   1.083       .  S
C357        C358   1.390   1_455  A
C357        H369   1.072       .  S
C358        H370   1.078       .  S
C359        C360   1.367       .  A
C359        H371   1.066       .  S
C360        H372   1.059       .  S
C361        C362   1.367       .  A
C361        H373   1.068       .  S
C362        H374   1.061       .  S
C363        C994   1.624       .  S
C364        C957   1.607       .  S
C365        C511   1.672       .  S
C366        C509   1.661       .  S
N377        C382   1.357       .  A
N377        C381   1.363       .  A
N377        H409   1.044       .  S
N378        C385   1.357       .  A
N378        C386   1.350       .  A
N379        C384   1.357       .  A
N379        C383   1.355       .  A
N379        H410   1.045       .  S
N380        C387   1.336       .  A
N380        C388   1.341       .  A
C381        C389   1.383       .  A
C381        C397   1.439       .  A
C382        C398   1.441       .  A
C382        C390   1.376       .  A
C383        C391   1.384       .  A
C383        C400   1.434       .  A
C384        C399   1.429       .  A
C384        C392   1.390       .  A
C385        C397   1.393       .  A
C385        C393   1.391       .  A
C386        C400   1.388       .  A
C386        C394   1.382       .  A
C387        C395   1.388       .  A
C387        C398   1.392       .  A
C388        C396   1.383       .  A
C388        C399   1.390       .  A
C389        C390   1.394       .  A
C389        H401   1.077       .  S
C390        H402   1.082       .  S
C391        C392   1.389       .  A
C391        H403   1.080       .  S
C392        H404   1.083       .  S
C393        C394   1.381       .  A
C393        H405   1.082       .  S
C394        H406   1.082       .  S
C395        C396   1.389       .  A
C395        H407   1.082       .  S
C396        H408   1.081       .  S
C399        C512   1.581       .  S
C400        C508   1.609       .  S
N411        C416   1.361       .  A
N411        C415   1.363       .  A
N411        H443   1.044       .  S
N412        C419   1.352       .  A
N412        C420   1.351       .  A
N413        C418   1.356       .  A
N413        C417   1.357       .  A
N413        H444   1.044       .  S
N414        C421   1.335       .  A
N414        C422   1.342       .  A
C415        C423   1.383       .  A
C415        C431   1.445       .  A
C416        C432   1.442       .  A
C416        C424   1.376       .  A
C417        C425   1.381       .  A
C417        C434   1.424       .  A
C418        C433   1.438       .  A
C418        C426   1.383       .  A
C419        C431   1.398       .  A
C419        C427   1.384       .  A
C420        C434   1.413       .  A
C420        C428   1.383       .  A
C421        C429   1.391       .  A
C421        C432   1.404       .  A
C422        C430   1.385       .  A
C422        C433   1.395       .  A
C423        C424   1.389       .  A
C423        H435   1.067       .  S
C424        H436   1.078       .  S
C425        C426   1.391       .  A
C425        H437   1.081       .  S
C426        H438   1.081       .  S
C427        C428   1.382       .  A
C427        H439   1.083       .  S
C428        H440   1.081       .  S
C429        C430   1.395       .  A
C429        H441   1.082       .  S
C430        H442   1.081       .  S
C433        C509   1.599       .  S
C434        C510   1.616       .  S
C445        C448   1.507       .  S
C445        C536   1.583       .  S
C445       C1018   1.664       .  S
C445       C1083   1.592       .  S
O446       Zr458   2.256   1_655  S
O446        C448   1.251       .  A
O447       Zr484   2.529       .  S
O447        C448   1.316       .  A
O449       Zr461   2.231       .  S
O449        C451   1.248       .  A
O450       Zr485   2.536       .  S
O450        C451   1.316       .  A
C451        C509   1.502       .  S
O452       Zr461   2.267   1_655  S
O452        C454   1.250       .  A
O453       Zr484   2.534       .  S
O453        C454   1.316       .  A
C454        C511   1.512       .  S
O455       Zr458   2.285       .  S
O455        C457   1.253       .  A
O456       Zr485   2.515       .  S
O456        C457   1.309       .  A
C457        C510   1.520       .  S
Zr458       O459   2.410       .  S
Zr458       O460   2.427   1_455  S
Zr458       O464   2.325   1_455  S
Zr458       O465   2.296       .  S
Zr458       O488   2.304       .  S
Zr458       O490   2.289   1_455  S
O459        H502   0.987       .  S
O460        H501   0.978       .  S
O460        H505   0.984   1_655  S
Zr461       O462   2.400   1_455  S
Zr461       O463   2.410       .  S
Zr461       O465   2.306       .  S
Zr461       O464   2.295   1_455  S
Zr461       O489   2.306   1_455  S
Zr461       O491   2.282       .  S
O462        H503   0.987   1_655  S
O462        H506   0.973       .  S
O463        H496   0.984       .  S
O464       Zr484   2.346       .  S
O465       Zr485   2.333       .  S
O465        H492   0.962       .  S
O466       Zr478   2.229       .  S
O466        C468   1.249       .  A
O467       Zr485   2.525   1_554  S
O467        C468   1.317       .  A
C468        C547   1.487       .  S
O469       Zr481   2.284   1_655  S
O469        C471   1.257       .  A
O470       Zr484   2.526   1_554  S
O470        C471   1.314       .  A
C471        C508   1.511       .  S
O472       Zr481   2.302       .  S
O472        C474   1.254       .  A
O473       Zr485   2.472   1_554  S
O473        C474   1.301       .  A
C474        C548   1.506       .  S
O475       Zr478   2.238   1_655  S
O475        C477   1.243       .  A
O476       Zr484   2.521   1_554  S
O476        C477   1.314       .  A
C477        C512   1.500       .  S
Zr478       O479   2.429   1_455  S
Zr478       O480   2.399       .  S
Zr478       O486   2.307       .  S
Zr478       O487   2.284   1_455  S
Zr478       O490   2.308   1_454  S
Zr478       O488   2.313   1_554  S
O479        H499   0.989   1_655  S
O479        H504   0.983       .  S
O480        H500   0.984       .  S
Zr481       O482   2.427       .  S
Zr481       O483   2.439   1_455  S
Zr481       O487   2.333   1_455  S
Zr481       O486   2.319       .  S
Zr481       O491   2.314   1_554  S
Zr481       O489   2.310   1_454  S
O482        H498   0.988       .  S
O483        H497   0.987   1_655  S
O483        H507   0.983       .  S
Zr484       O487   2.352   1_556  S
Zr484       O489   2.326       .  S
Zr484       O490   2.318       .  S
Zr485       O486   2.363   1_556  S
Zr485       O488   2.330       .  S
Zr485       O491   2.342       .  S
O486        H494   0.962       .  S
O489        H493   0.960       .  S
O490        H495   0.962       .  S
C510       C1017   1.669       .  S
C511        C535   1.612       .  S
C512        C777   1.661       .  S
C512       C1084   1.589       .  S
N513        C518   1.355       .  A
N513        C517   1.351       .  A
N513        H545   1.045       .  S
N514        C521   1.335       .  A
N514        C522   1.333       .  A
N515        C520   1.361       .  A
N515        C519   1.360       .  A
N515        H546   1.045       .  S
N516        C523   1.345       .  A
N516        C524   1.346       .  A
C517        C525   1.378       .  A
C517        C533   1.431       .  A
C518        C534   1.422       .  A
C518        C526   1.382       .  A
C519        C527   1.384       .  A
C519        C536   1.444       .  A
C520        C535   1.442       .  A
C520        C528   1.383       .  A
C521        C533   1.391       .  A
C521        C529   1.391       .  A
C522        C536   1.380       .  A
C522        C530   1.384       .  A
C523        C531   1.392       .  A
C523        C534   1.420       .  A
C524        C532   1.385       .  A
C524        C535   1.408       .  A
C525        C526   1.392       .  A
C525        H537   1.081       .  S
C526        H538   1.080       .  S
C527        C528   1.394       .  A
C527        H539   1.082       .  S
C528        H540   1.081       .  S
C529        C530   1.391       .  A
C529        H541   1.082       .  S
C530        H542   1.082       .  S
C531        C532   1.398       .  A
C531        H543   1.082       .  S
C532        H544   1.081       .  S
C547        C778   1.666       .  S
N549        C554   1.379       .  A
N549        C553   1.379   1_565  A
N549        H581   1.039       .  S
N550        C557   1.364       .  A
N550        C558   1.360       .  A
N551        C556   1.391       .  A
N551        C555   1.382   1_565  A
N551        H582   1.035   1_565  S
N552        C559   1.379       .  A
N552        C560   1.366       .  A
C553        C561   1.393       .  A
C553        C569   1.463       .  A
C554        C570   1.473       .  A
C554        C562   1.392       .  A
C555        C563   1.396       .  A
C555        C572   1.488       .  A
C556        C571   1.472       .  A
C556        C564   1.392       .  A
C557        C569   1.436       .  A
C557        C565   1.387       .  A
C558        C572   1.419       .  A
C558        C566   1.386       .  A
C559        C567   1.361       .  A
C559        C570   1.438       .  A
C560        C568   1.325       .  A
C560        C571   1.421       .  A
C561        C562   1.390   1_545  A
C561        H573   1.074       .  S
C562        H574   1.082       .  S
C563        C564   1.394   1_545  A
C563        H575   1.081       .  S
C564        H576   1.080       .  S
C565        C566   1.387       .  A
C565        H577   1.080       .  S
C566        H578   1.082       .  S
C567        C568   1.356       .  A
C567        H579   1.065       .  S
C568        H580   1.068       .  S
C569        C716   1.674       .  S
C570        C715   1.689       .  S
C571        C956   1.703       .  S
C572        C994   1.678       .  S
N583        C588   1.369       .  A
N583        C587   1.371       .  A
N583        H615   1.044       .  S
N584        C591   1.353       .  A
N584        C592   1.355       .  A
N585        C590   1.366       .  A
N585        C589   1.363       .  A
N585        H616   1.044       .  S
N586        C593   1.357       .  A
N586        C594   1.359       .  A
C587        C595   1.388       .  A
C587        C603   1.443       .  A
C588        C604   1.451       .  A
C588        C596   1.381       .  A
C589        C597   1.388       .  A
C589        C606   1.450       .  A
C590        C605   1.427       .  A
C590        C598   1.383       .  A
C591        C603   1.410       .  A
C591        C599   1.393       .  A
C592        C606   1.395       .  A
C592        C600   1.381       .  A
C593        C601   1.378       .  A
C593        C604   1.424       .  A
C594        C602   1.363       .  A
C594        C605   1.413       .  A
C595        C596   1.378       .  A
C595        H607   1.081       .  S
C596        H608   1.080       .  S
C597        C598   1.372       .  A
C597        H609   1.080       .  S
C598        H610   1.078       .  S
C599        C600   1.370       .  A
C599        H611   1.082       .  S
C600        H612   1.082       .  S
C601        C602   1.360       .  A
C601        H613   1.059       .  S
C602        H614   1.065       .  S
C603        C718   1.631       .  S
C604        C714   1.612       .  S
N617        C622   1.369       .  A
N617        C621   1.369       .  A
N617        H649   1.044       .  S
N618        C625   1.347       .  A
N618        C626   1.352       .  A
N619        C624   1.373       .  A
N619        C623   1.372       .  A
N619        H650   1.043       .  S
N620        C627   1.353       .  A
N620        C628   1.352       .  A
C621        C629   1.379       .  A
C621        C637   1.446       .  A
C622        C638   1.450       .  A
C622        C630   1.381       .  A
C623        C631   1.384       .  A
C623        C640   1.459       .  A
C624        C639   1.448       .  A
C624        C632   1.390       .  A
C625        C637   1.419       .  A
C625        C633   1.386       .  A
C626        C640   1.395       .  A
C626        C634   1.362       .  A
C627        C635   1.377       .  A
C627        C638   1.414       .  A
C628        C636   1.368       .  A
C628        C639   1.409       .  A
C629        C630   1.380       .  A
C629        H641   1.071       .  S
C630        H642   1.081       .  S
C631        C632   1.375       .  A
C631        H643   1.082       .  S
C632        H644   1.083       .  S
C633        C634   1.355       .  A
C633        H645   1.056       .  S
C634        H646   1.065       .  S
C635        C636   1.361       .  A
C635        H647   1.060       .  S
C636        H648   1.065       .  S
C637        C651   1.593       .  S
C638        C716   1.608       .  S
C651        C654   1.525       .  S
C651       C1050   1.654       .  S
O652       Zr664   2.254   1_545  S
O652        C654   1.253       .  A
O653       Zr690   2.563       .  S
O653        C654   1.323       .  A
O655       Zr667   2.268       .  S
O655        C657   1.249       .  A
O656       Zr691   2.552       .  S
O656        C657   1.318       .  A
C657        C715   1.527       .  S
O658       Zr667   2.248   1_545  S
O658        C660   1.250       .  A
O659       Zr690   2.533       .  S
O659        C660   1.317       .  A
C660        C716   1.505       .  S
O661       Zr664   2.232       .  S
O661        C663   1.240       .  A
O662       Zr691   2.541       .  S
O662        C663   1.317       .  A
C663        C717   1.503       .  S
Zr664       O665   2.403       .  S
Zr664       O666   2.423       .  S
Zr664       O670   2.308   1_565  S
Zr664       O671   2.318       .  S
Zr664       O694   2.309       .  S
Zr664       O696   2.306   1_565  S
O665        H708   0.982   1_565  S
O666        H707   0.984       .  S
O666        H711   0.983       .  S
Zr667       O668   2.442       .  S
Zr667       O669   2.396   1_565  S
Zr667       O671   2.280       .  S
Zr667       O670   2.308   1_565  S
Zr667       O695   2.323   1_565  S
Zr667       O697   2.299       .  S
O668        H709   0.984       .  S
O668        H712   0.987   1_565  S
O669        H702   0.984       .  S
O670       Zr690   2.335       .  S
O671       Zr691   2.326       .  S
O671        H698   0.962       .  S
O672       Zr684   2.215       .  S
O672        C674   1.242       .  A
O673       Zr691   2.551   1_554  S
O673        C674   1.320       .  A
C674        C714   1.498       .  S
O675       Zr687   2.270   1_545  S
O675        C677   1.250       .  A
O676       Zr690   2.551   1_554  S
O676        C677   1.321       .  A
C677        C753   1.514       .  S
O678       Zr687   2.274       .  S
O678        C680   1.251       .  A
O679       Zr691   2.499   1_554  S
O679        C680   1.308       .  A
C680        C718   1.508       .  S
O681       Zr684   2.214   1_545  S
O681        C683   1.236       .  A
O682       Zr690   2.546   1_554  S
O682        C683   1.319       .  A
C683        C754   1.512       .  S
Zr684       O685   2.446   1_565  S
Zr684       O686   2.412       .  S
Zr684       O692   2.294       .  S
Zr684       O693   2.281   1_565  S
Zr684       O696   2.296   1_564  S
Zr684       O694   2.327   1_554  S
O685        H705   0.988   1_545  S
O685        H710   0.981       .  S
O686        H706   0.985       .  S
Zr687       O688   2.427       .  S
Zr687       O689   2.413   1_565  S
Zr687       O693   2.317   1_565  S
Zr687       O692   2.304       .  S
Zr687       O697   2.308   1_554  S
Zr687       O695   2.326   1_564  S
O688        H704   0.988       .  S
O689        H703   0.983   1_545  S
O689        H713   0.979       .  S
Zr690       O693   2.344   1_556  S
Zr690       O695   2.349       .  S
Zr690       O696   2.337       .  S
Zr691       O692   2.352   1_556  S
Zr691       O694   2.350       .  S
Zr691       O697   2.347       .  S
O692        H700   0.962       .  S
O695        H699   0.953       .  S
O696        H701   0.960       .  S
C714        C810   1.678       .  S
C714       C1085   1.587       .  S
C715        C739   1.638       .  S
C717        C740   1.598       .  S
C717       C1049   1.683       .  S
C717       C1086   1.609       .  S
N719        C724   1.368       .  A
N719        C723   1.369       .  A
N719        H751   1.044       .  S
N720        C727   1.359       .  A
N720        C728   1.366       .  A
N721        C726   1.378       .  A
N721        C725   1.374       .  A
N721        H752   1.044       .  S
N722        C729   1.354       .  A
N722        C730   1.351       .  A
C723        C731   1.390       .  A
C723        C739   1.442       .  A
C724        C740   1.448       .  A
C724        C732   1.378       .  A
C725        C733   1.390       .  A
C725        C742   1.471       .  A
C726        C741   1.450       .  A
C726        C734   1.384       .  A
C727        C739   1.421       .  A
C727        C735   1.384       .  A
C728        C742   1.412       .  A
C728        C736   1.385       .  A
C729        C737   1.377       .  A
C729        C740   1.413       .  A
C730        C738   1.367       .  A
C730        C741   1.404       .  A
C731        C732   1.374       .  A
C731        H743   1.081       .  S
C732        H744   1.073       .  S
C733        C734   1.377       .  A
C733        H745   1.079       .  S
C734        H746   1.081       .  S
C735        C736   1.374       .  A
C735        H747   1.082       .  S
C736        H748   1.081       .  S
C737        C738   1.350       .  A
C737        H749   1.056       .  S
C738        H750   1.065       .  S
C754        C809   1.678       .  S
N755        C760   1.369   1_455  A
N755        C759   1.368       .  A
N755        H787   1.044       .  S
N756        C763   1.362       .  A
N756        C764   1.365       .  A
N757        C762   1.382   1_455  A
N757        C761   1.376       .  A
N757        H788   1.039       .  S
N758        C765   1.361       .  A
N758        C766   1.359       .  A
C759        C767   1.393       .  A
C759        C775   1.446       .  A
C760        C776   1.446       .  A
C760        C768   1.378       .  A
C761        C769   1.395       .  A
C761        C778   1.463       .  A
C762        C777   1.471       .  A
C762        C770   1.387       .  A
C763        C775   1.431       .  A
C763        C771   1.387       .  A
C764        C778   1.416       .  A
C764        C772   1.384       .  A
C765        C773   1.363       .  A
C765        C776   1.416       .  A
C766        C774   1.380       .  A
C766        C777   1.436       .  A
C767        C768   1.378   1_455  A
C767        H779   1.077       .  S
C768        H780   1.082       .  S
C769        C770   1.380   1_455  A
C769        H781   1.079       .  S
C770        H782   1.073       .  S
C771        C772   1.372       .  A
C771        H783   1.080       .  S
C772        H784   1.078       .  S
C773        C774   1.367       .  A
C773        H785   1.067       .  S
C774        H786   1.058       .  S
C775        C955   1.627       .  S
C776        C954   1.621       .  S
N789        C794   1.384       .  A
N789        C793   1.380   1_565  A
N789        H821   1.036       .  S
N790        C797   1.362       .  A
N790        C798   1.361       .  A
N791        C796   1.395       .  A
N791        C795   1.399   1_565  A
N791        H822   1.033       .  S
N792        C799   1.363       .  A
N792        C800   1.360       .  A
C793        C801   1.389       .  A
C793        C809   1.484       .  A
C794        C810   1.471       .  A
C794        C802   1.394       .  A
C795        C803   1.387       .  A
C795        C812   1.495       .  A
C796        C811   1.501       .  A
C796        C804   1.397       .  A
C797        C809   1.430       .  A
C797        C805   1.372       .  A
C798        C812   1.421       .  A
C798        C806   1.371       .  A
C799        C807   1.383       .  A
C799        C810   1.432       .  A
C800        C808   1.385       .  A
C800        C811   1.417       .  A
C801        C802   1.392   1_545  A
C801        H813   1.083       .  S
C802        H814   1.075       .  S
C803        C804   1.394   1_545  A
C803        H815   1.082       .  S
C804        H816   1.081       .  S
C805        C806   1.364       .  A
C805        H817   1.051       .  S
C806        H818   1.070       .  S
C807        C808   1.381       .  A
C807        H819   1.077       .  S
C808        H820   1.081       .  S
C811        C954   1.683       .  S
C812        C891   1.674       .  S
N823        C828   1.367       .  A
N823        C827   1.365       .  A
N823        H855   1.042       .  S
N824        C831   1.351       .  A
N824        C832   1.354       .  A
N825        C830   1.374       .  A
N825        C829   1.377       .  A
N825        H856   1.045       .  S
N826        C833   1.355       .  A
N826        C834   1.359       .  A
C827        C835   1.376       .  A
C827        C843   1.445       .  A
C828        C844   1.448       .  A
C828        C836   1.382       .  A
C829        C837   1.382       .  A
C829        C846   1.464       .  A
C830        C845   1.458       .  A
C830        C838   1.382       .  A
C831        C843   1.420       .  A
C831        C839   1.388       .  A
C832        C846   1.414       .  A
C832        C840   1.386       .  A
C833        C841   1.381       .  A
C833        C844   1.417       .  A
C834        C842   1.386       .  A
C834        C845   1.419       .  A
C835        C836   1.390       .  A
C835        H847   1.078       .  S
C836        H848   1.071       .  S
C837        C838   1.402       .  A
C837        H849   1.082       .  S
C838        H850   1.081       .  S
C839        C840   1.393       .  A
C839        H851   1.082       .  S
C840        H852   1.080       .  S
C841        C842   1.377       .  A
C841        H853   1.081       .  S
C842        H854   1.078       .  S
C843        C957   1.630       .  S
C844        C891   1.613       .  S
N857        C862   1.372       .  A
N857        C861   1.367       .  A
N857        H889   1.044       .  S
N858        C865   1.360       .  A
N858        C866   1.357       .  A
N859        C864   1.386       .  A
N859        C863   1.387       .  A
N859        H890   1.034       .  S
N860        C867   1.356       .  A
N860        C868   1.358       .  A
C861        C869   1.385       .  A
C861        C877   1.458       .  A
C862        C878   1.446       .  A
C862        C870   1.390       .  A
C863        C871   1.392       .  A
C863        C880   1.469       .  A
C864        C879   1.473       .  A
C864        C872   1.391       .  A
C865        C877   1.411       .  A
C865        C873   1.375       .  A
C866        C880   1.426       .  A
C866        C874   1.395       .  A
C867        C875   1.382       .  A
C867        C878   1.418       .  A
C868        C876   1.395       .  A
C868        C879   1.419       .  A
C869        C870   1.395       .  A
C869        H881   1.082       .  S
C870        H882   1.081       .  S
C871        C872   1.366       .  A
C871        H883   1.078       .  S
C872        H884   1.077       .  S
C873        C874   1.377       .  A
C873        H885   1.079       .  S
C874        H886   1.082       .  S
C875        C876   1.391       .  A
C875        H887   1.082       .  S
C876        H888   1.082       .  S
C877        C955   1.631       .  S
C878        C956   1.626       .  S
C891        C894   1.516       .  S
O892       Zr904   2.285   1_545  S
O892        C894   1.258       .  A
O893       Zr930   2.533   1_655  S
O893        C894   1.313       .  A
O895       Zr907   2.279       .  S
O895        C897   1.261       .  A
O896       Zr931   2.551   1_655  S
O896        C897   1.316       .  A
C897        C958   1.531       .  S
O898       Zr907   2.256   1_545  S
O898        C900   1.250       .  A
O899       Zr930   2.545   1_655  S
O899        C900   1.317       .  A
C900        C957   1.518       .  S
O901       Zr904   2.283       .  S
O901        C903   1.261       .  A
O902       Zr931   2.527   1_655  S
O902        C903   1.316       .  A
C903        C954   1.506       .  S
Zr904       O905   2.411       .  S
Zr904       O906   2.473   1_565  S
Zr904       O910   2.312   1_565  S
Zr904       O911   2.327       .  S
Zr904       O934   2.309   1_655  S
Zr904       O936   2.306   1_665  S
O905        H948   0.981   1_565  S
O906        H947   0.990       .  S
O906        H951   0.986   1_545  S
Zr907       O908   2.434   1_565  S
Zr907       O909   2.389       .  S
Zr907       O911   2.264       .  S
Zr907       O910   2.294   1_565  S
Zr907       O935   2.324   1_565  S
Zr907       O937   2.287       .  S
O908        H949   0.986   1_545  S
O908        H952   0.980   1_545  S
O909        H942   0.979       .  S
O910       Zr930   2.350   1_655  S
O911       Zr931   2.375   1_655  S
O911        H938   0.959       .  S
O912       Zr924   2.264       .  S
O912        C914   1.256       .  A
O913       Zr931   2.551       .  S
O913        C914   1.317       .  A
C914        C955   1.518       .  S
O915       Zr927   2.302   1_545  S
O915        C917   1.262       .  A
O916       Zr930   2.528       .  S
O916        C917   1.314       .  A
C917        C994   1.517       .  S
O918       Zr927   2.312       .  S
O918        C920   1.259       .  A
O919       Zr931   2.522       .  S
O919        C920   1.311       .  A
C920        C956   1.519       .  S
O921       Zr924   2.291   1_545  S
O921        C923   1.262       .  A
O922       Zr930   2.539       .  S
O922        C923   1.315       .  A
C923        C993   1.529       .  S
Zr924       O925   2.446       .  S
Zr924       O926   2.411       .  S
Zr924       O932   2.304       .  S
Zr924       O933   2.312   1_565  S
Zr924       O936   2.316   1_565  S
Zr924       O934   2.306       .  S
O925        H945   0.988       .  S
O925        H950   0.983   1_565  S
O926        H946   0.990       .  S
Zr927       O928   2.401       .  S
Zr927       O929   2.502       .  S
Zr927       O933   2.333   1_565  S
Zr927       O932   2.341       .  S
Zr927       O937   2.330   1_455  S
Zr927       O935   2.328   1_465  S
O928        H944   0.984   1_565  S
O929        H943   0.990       .  S
O929        H953   0.990   1_565  S
Zr930       O933   2.359       .  S
Zr930       O935   2.368   1_455  S
Zr930       O936   2.377       .  S
Zr931       O932   2.381       .  S
Zr931       O934   2.345       .  S
Zr931       O937   2.347   1_455  S
O932        H940   0.965       .  S
O935        H939   0.964       .  S
O936        H941   0.962       .  S
C954        C979   1.623       .  S
C956       C1016   1.655       .  S
C957       C1051   1.697       .  S
C958        C980   1.643       .  S
C958       C1015   1.610       .  S
C958       C1052   1.688       .  S
N959        C964   1.362       .  A
N959        C963   1.366       .  A
N959        H991   1.045       .  S
N960        C967   1.354       .  A
N960        C968   1.354       .  A
N961        C966   1.377       .  A
N961        C965   1.375       .  A
N961        H992   1.039       .  S
N962        C969   1.357       .  A
N962        C970   1.358       .  A
C963        C971   1.381       .  A
C963        C979   1.441       .  A
C964        C980   1.447       .  A
C964        C972   1.378       .  A
C965        C973   1.392       .  A
C965        C982   1.466       .  A
C966        C981   1.459       .  A
C966        C974   1.392       .  A
C967        C979   1.424       .  A
C967        C975   1.389       .  A
C968        C982   1.416       .  A
C968        C976   1.385       .  A
C969        C977   1.388       .  A
C969        C980   1.432       .  A
C970        C978   1.386       .  A
C970        C981   1.426       .  A
C971        C972   1.392       .  A
C971        H983   1.073       .  S
C972        H984   1.074       .  S
C973        C974   1.402       .  A
C973        H985   1.078       .  S
C974        H986   1.080       .  S
C975        C976   1.393       .  A
C975        H987   1.082       .  S
C976        H988   1.081       .  S
C977        C978   1.394       .  A
C977        H989   1.081       .  S
C978        H990   1.080       .  S
N995       C1000   1.372       .  A
N995        C999   1.372   1_455  A
N995       H1027   1.044       .  S
N996       C1003   1.362       .  A
N996       C1004   1.363       .  A
N997       C1002   1.385       .  A
N997       C1001   1.377   1_455  A
N997       H1028   1.041       .  S
N998       C1005   1.368       .  A
N998       C1006   1.368       .  A
C999       C1007   1.391       .  A
C999       C1015   1.448       .  A
C1000      C1016   1.457       .  A
C1000      C1008   1.385       .  A
C1001      C1009   1.388       .  A
C1001      C1018   1.474       .  A
C1002      C1017   1.472       .  A
C1002      C1010   1.392       .  A
C1003      C1015   1.432       .  A
C1003      C1011   1.373       .  A
C1004      C1018   1.437       .  A
C1004      C1012   1.379       .  A
C1005      C1013   1.374       .  A
C1005      C1016   1.455       .  A
C1006      C1014   1.347       .  A
C1006      C1017   1.418       .  A
C1007      C1008   1.382   1_655  A
C1007      H1019   1.083       .  S
C1008      H1020   1.083       .  S
C1009      C1010   1.388   1_655  A
C1009      H1021   1.076       .  S
C1010      H1022   1.080       .  S
C1011      C1012   1.369       .  A
C1011      H1023   1.066       .  S
C1012      H1024   1.061       .  S
C1013      C1014   1.333       .  A
C1013      H1025   1.044       .  S
C1014      H1026   1.053       .  S
N1029      C1034   1.378   1_565  A
N1029      C1033   1.384       .  A
N1029      H1061   1.039       .  S
N1030      C1037   1.360       .  A
N1030      C1038   1.361       .  A
N1031      C1036   1.395   1_565  A
N1031      C1035   1.394       .  A
N1031      H1062   1.045       .  S
N1032      C1039   1.354       .  A
N1032      C1040   1.360       .  A
C1033      C1041   1.392       .  A
C1033      C1049   1.472       .  A
C1034      C1050   1.461       .  A
C1034      C1042   1.389       .  A
C1035      C1043   1.377       .  A
C1035      C1052   1.499       .  A
C1036      C1051   1.501       .  A
C1036      C1044   1.379       .  A
C1037      C1049   1.431       .  A
C1037      C1045   1.396       .  A
C1038      C1052   1.413       .  A
C1038      C1046   1.375       .  A
C1039      C1047   1.394       .  A
C1039      C1050   1.423       .  A
C1040      C1048   1.379       .  A
C1040      C1051   1.412       .  A
C1041      C1042   1.371   1_565  A
C1041      H1053   1.076       .  S
C1042      H1054   1.079       .  S
C1043      C1044   1.408   1_565  A
C1043      H1055   1.078       .  S
C1044      H1056   1.077       .  S
C1045      C1046   1.377       .  A
C1045      H1057   1.078       .  S
C1046      H1058   1.080       .  S
C1047      C1048   1.382       .  A
C1047      H1059   1.082       .  S
C1048      H1060   1.080       .  S
N1063      C1068   1.360   1_556  A
N1063      C1067   1.362       .  A
N1063      H1095   1.044       .  S
N1064      C1071   1.352       .  A
N1064      C1072   1.353       .  A
N1065      C1070   1.370   1_556  A
N1065      C1069   1.369       .  A
N1065      H1096   1.044       .  S
N1066      C1073   1.348       .  A
N1066      C1074   1.347       .  A
C1067      C1075   1.385       .  A
C1067      C1083   1.425       .  A
C1068      C1084   1.434       .  A
C1068      C1076   1.384       .  A
C1069      C1077   1.391       .  A
C1069      C1086   1.450       .  A
C1070      C1085   1.445       .  A
C1070      C1078   1.387       .  A
C1071      C1083   1.406       .  A
C1071      C1079   1.389       .  A
C1072      C1086   1.388       .  A
C1072      C1080   1.378       .  A
C1073      C1081   1.385       .  A
C1073      C1084   1.391       .  A
C1074      C1082   1.377       .  A
C1074      C1085   1.381       .  A
C1075      C1076   1.365   1_556  A
C1075      H1087   1.079       .  S
C1076      H1088   1.075       .  S
C1077      C1078   1.370   1_556  A
C1077      H1089   1.080       .  S
C1078      H1090   1.078       .  S
C1079      C1080   1.361       .  A
C1079      H1091   1.073       .  S
C1080      H1092   1.080       .  S
C1081      C1082   1.352       .  A
C1081      H1093   1.071       .  S
C1082      H1094   1.071       .  S
