geometry optimzed in LAMMPS
_audit_creation_date              2020-12-01 
_audit_creation_method            'lammps2cif' 
_symmetry_space_group_name_H-M    'P1' 
_symmetry_Int_Tables_number       1 
_symmetry_cell_setting            triclinic 
loop_ 
_symmetry_equiv_pos_as_xyz 
  x,y,z 
_cell_length_a                    31.53359923 
_cell_length_b                    25.740073480590326 
_cell_length_c                    25.5251747715641 
_cell_angle_alpha                 89.81383417934398 
_cell_angle_beta                  89.82272130200232 
_cell_angle_gamma                 90.31095607525278 
loop_ 
_atom_site_label 
_atom_site_type_symbol 
_atom_site_fract_x 
_atom_site_fract_y 
_atom_site_fract_z 
_atom_site_charge 
O1          O  0.43315701  0.39123611  0.40194807    -0.75400
O2          O  0.38106814  0.43453304  0.44502828    -0.54300
C3          C  0.39392123  0.39989865  0.41222324     0.78300
O4          O  0.07627800  0.40004373  0.10695935    -0.60000
O5          O  0.12678334  0.44118952  0.05761476    -0.53000
C6          C  0.11508833  0.41060050  0.09506347     0.70300
O7          O  0.43352058  0.39507658  0.10431778    -0.74600
O8          O  0.38192709  0.43972532  0.06067963    -0.55100
C9          C  0.39454572  0.40576923  0.09415931     0.76400
O10         O  0.07459981  0.39499930  0.39706861    -0.59700
O11         O  0.12621209  0.44074970  0.43918767    -0.52800
C12         C  0.11364424  0.40568659  0.40674475     0.72900
Zr13       Zr  0.00394371  0.42089819  0.42288281     2.54700
O14         O  0.00585611  0.32641758  0.42006082    -0.80300
O15         O  0.00232347  0.42424337  0.32750480    -0.93700
Zr16       Zr  0.00491002  0.41857695  0.07630009     2.64700
O17         O  0.50698018  0.32542165  0.07114277    -0.98600
O18         O  0.00272578  0.41259875  0.17150086    -0.80700
O19         O  0.46257475  0.41872849  0.49986729    -0.84100
O20         O  0.04620516  0.41818570  0.99878286    -2.18800
O21         O  0.07568144  0.10113327  0.39911071    -0.67400
O22         O  0.12643961  0.05745725  0.44539381    -0.52000
C23         C  0.11455085  0.09171258  0.41211971     0.71300
O24         O  0.43516105  0.09862127  0.10340723    -0.60400
O25         O  0.38340240  0.05540647  0.05868403    -0.52300
C26         C  0.39628607  0.08823370  0.09338900     0.73100
O27         O  0.07568882  0.10117502  0.09605415    -0.71700
O28         O  0.12670722  0.05663864  0.05251919    -0.50400
C29         C  0.11462734  0.09200614  0.08456215     0.74500
O30         O  0.42999675  0.09845874  0.39736088    -0.67100
O31         O  0.38034402  0.04986387  0.44143667    -0.54300
C32         C  0.39126963  0.08525878  0.40824475     0.72900
Zr33       Zr  0.50302247  0.07264508  0.42063162     2.77500
O34         O  0.50281073  0.16723919  0.42216329    -0.97800
O35         O  0.50251217  0.06901972  0.32528090    -0.78600
Zr36       Zr  0.50452557  0.07201795  0.07537648     2.70100
O37         O  0.00483010  0.16650006  0.07673473    -0.79900
O38         O  0.50813189  0.06613557  0.17047286    -0.99000
Zr39       Zr  0.42056482  0.49567853  0.50038756     2.21500
Zr40       Zr  0.08676589  0.99690070  0.99816362     2.11100
O41         O  0.04492975  0.07412717  0.99762517    -2.47700
O42         O  0.46210249  0.07335327  0.49874325    -0.79700
O43         O  0.04559825  0.99709406  0.41974477    -0.71900
O44         O  0.46301909  0.49582652  0.07796165    -2.32800
O45         O  0.46144509  0.49735637  0.42134972    -2.29000
O46         O  0.04658147  0.99611855  0.07737165    -0.73600
H47         H  0.06438413  0.38810382  0.99860437     0.78400
H48         H  0.44534566  0.49629760  0.10892526     0.79400
H49         H  0.06244955  0.10499688  0.99773037     0.81700
H50         H  0.44320205  0.49694466  0.39102546     0.79300
H51         H  0.48546277  0.44756535  0.18320890     0.42300
H52         H  0.03193946  0.04309659  0.17788846     0.41300
H53         H  0.48919620  0.17637627  0.04344883     0.41000
H54         H  0.02570989  0.17897649  0.43724848     0.38900
H55         H  0.02063200  0.03612517  0.31724713     0.42000
H56         H  0.47775159  0.44839514  0.31854811     0.36800
H57         H  0.52244906  0.31624101  0.44789395     0.42900
H58         H  0.03764246  0.31616814  0.06190365     0.39300
H59         H  0.51156834  0.17774492  0.38636787     0.44300
H60         H  0.99836634  0.38761859  0.31670846     0.44800
H61         H  0.00024301  0.31078118  0.10209926     0.43100
H62         H  0.51388517  0.10217426  0.18201756     0.43500
C63         C  0.22719025  0.21169297  0.27703243    -0.02600
C64         C  0.22762052  0.27279020  0.28201203    -0.02600
C65         C  0.23002203  0.27850053  0.21998534    -0.02600
C66         C  0.22871825  0.21704873  0.21566255    -0.02600
C67         C  0.27647124  0.21116585  0.27957401    -0.02600
C68         C  0.27859662  0.21572848  0.21774886    -0.02600
C69         C  0.27965419  0.27712972  0.22252682    -0.02600
C70         C  0.27762381  0.27204894  0.28391803    -0.02600
C71         C  0.14977525  0.10577490  0.32965031    -0.26400
C72         C  0.14788728  0.11847635  0.38215879    -0.14500
C73         C  0.17772920  0.15425831  0.40282310     0.36100
C74         C  0.20527631  0.18076936  0.36795866    -0.25900
C75         C  0.20327227  0.17282556  0.31318104    -0.15100
C76         C  0.17788747  0.13044172  0.29567000     0.37200
N77         N  0.18157454  0.10855794  0.24497630    -0.89400
H78         H  0.12933926  0.07522371  0.31457194     0.18300
H79         H  0.22599518  0.21071199  0.38335532     0.18300
N80         N  0.17941761  0.16684110  0.45760832    -0.88400
H81         H  0.15135872  0.10761270  0.22817556     0.35700
H82         H  0.19153830  0.07003973  0.24889853     0.40800
H83         H  0.15690777  0.14576504  0.47903552     0.40400
H84         H  0.17145001  0.20602866  0.46146301     0.35300
C85         C  0.18385739  0.36328729  0.10391294    -0.26400
C86         C  0.14788425  0.38464187  0.12722244    -0.14500
C87         C  0.14162938  0.37737697  0.18109746     0.36100
C88         C  0.16877025  0.34458149  0.20901396    -0.25900
C89         C  0.20358289  0.31839581  0.18609940    -0.15100
C90         C  0.21202136  0.33153617  0.13249282     0.37200
N91         N  0.24961609  0.31551264  0.10619777    -0.89400
H92         H  0.18988909  0.37038430  0.06266107     0.18300
H93         H  0.15876960  0.33674066  0.24777355     0.18300
N94         N  0.10677907  0.40234271  0.20733599    -0.88400
H95         H  0.26641762  0.34890155  0.09504303     0.35700
H96         H  0.24051262  0.29718990  0.07144280     0.40800
H97         H  0.11199575  0.44244857  0.20513563     0.40400
H98         H  0.10607261  0.39284696  0.24719535     0.35300
C99         C  0.34247308  0.15595879  0.20636107    -0.26400
C100        C  0.30787842  0.18111150  0.18279125    -0.14500
C101        C  0.30567927  0.17763376  0.12654511     0.36100
C102        C  0.33345075  0.14517977  0.09889390    -0.25900
C103        C  0.36498015  0.11729629  0.12448277    -0.15100
C104        C  0.36961070  0.12328269  0.17901634     0.37200
N105        N  0.40161823  0.09661070  0.20826552    -0.89400
H106        H  0.35086841  0.16310008  0.24622703     0.18300
H107        H  0.33132632  0.14335240  0.05653900     0.18300
N108        N  0.27760166  0.20825687  0.09554546    -0.88400
H109        H  0.43146582  0.11038449  0.19701063     0.35700
H110        H  0.39938194  0.05685633  0.20037608     0.40800
H111        H  0.25645107  0.22658039  0.11998606     0.40400
H112        H  0.25958998  0.18338641  0.07203066     0.35300
C113        C  0.13155493  0.17106877  0.13442120    -0.26400
C114        C  0.14641758  0.12559042  0.11093325    -0.14500
C115        C  0.18900509  0.11143650  0.11924297     0.36100
C116        C  0.21451151  0.14189611  0.15195682    -0.25900
C117        C  0.19951395  0.18720324  0.17718313    -0.15100
C118        C  0.15601634  0.19951890  0.16940783     0.37200
N119        N  0.13312825  0.23543046  0.20084132    -0.89400
H120        H  0.09880471  0.18267782  0.12944594     0.18300
H121        H  0.24466866  0.12575571  0.16206889     0.18300
N122        N  0.20678978  0.06488273  0.09809044    -0.88400
H123        H  0.12276018  0.26560790  0.17669291     0.35700
H124        H  0.15233158  0.24986618  0.22988809     0.40800
H125        H  0.20552820  0.06691009  0.05722476     0.40400
H126        H  0.18895901  0.03304847  0.11128100     0.35300
C127        C  0.37841012  0.33994537  0.33875636    -0.26400
C128        C  0.36294850  0.36734407  0.38221134    -0.14500
C129        C  0.32020265  0.35958383  0.39679767     0.36100
C130        C  0.29413645  0.32694323  0.36597741    -0.25900
C131        C  0.30857964  0.30350843  0.31915820    -0.15100
C132        C  0.35295971  0.30688962  0.30907908     0.37200
N133        N  0.37490363  0.27454302  0.27254152    -0.89400
H134        H  0.41162758  0.34260582  0.32800572     0.18300
H135        H  0.26335529  0.31671099  0.38122065     0.18300
N136        N  0.30356416  0.38327997  0.44338829    -0.88400
H137        H  0.38861083  0.29829679  0.24378715     0.35700
H138        H  0.35471988  0.24828545  0.25492267     0.40800
H139        H  0.31902801  0.36666256  0.47546396     0.40400
H140        H  0.27131298  0.37458171  0.44781599     0.35300
C141        C  0.33277358  0.09030699  0.34220429    -0.26400
C142        C  0.35684873  0.11424881  0.38159050    -0.14500
C143        C  0.34712512  0.16580002  0.39523971     0.36100
C144        C  0.31833249  0.19379442  0.36458076    -0.25900
C145        C  0.29978965  0.17366859  0.31862192    -0.15100
C146        C  0.30364333  0.11872334  0.31150620     0.37200
N147        N  0.27986335  0.09055479  0.27296686    -0.89400
H148        H  0.33763036  0.04948300  0.33396104     0.18300
H149        H  0.30964157  0.23099433  0.37916101     0.18300
N150        N  0.36539298  0.19113825  0.44013210    -0.88400
H151        H  0.30114478  0.07239243  0.24756044     0.35700
H152        H  0.26201949  0.11573724  0.25031531     0.40800
H153        H  0.38552868  0.16660257  0.46094792     0.40400
H154        H  0.34060761  0.20029739  0.46575566     0.35300
C155        C  0.13366160  0.32123118  0.36992211    -0.26400
C156        C  0.14500410  0.37284176  0.37909420    -0.14500
C157        C  0.18274129  0.39210491  0.35689654     0.36100
C158        C  0.20836723  0.35857926  0.32680551    -0.25900
C159        C  0.19839627  0.30544532  0.31884399    -0.15100
C160        C  0.15802394  0.28853656  0.33842535     0.37200
N161        N  0.13775254  0.24171852  0.32174471    -0.89400
H162        H  0.10364944  0.30650721  0.38483639     0.18300
H163        H  0.23644607  0.37443711  0.30934013     0.18300
N164        N  0.19428560  0.44579879  0.36333983    -0.88400
H165        H  0.11008463  0.25192995  0.30178849     0.35700
H166        H  0.12731873  0.22175203  0.35508313     0.40800
H167        H  0.17140256  0.46820927  0.34432742     0.40400
H168        H  0.22317987  0.45377647  0.34470175     0.35300
C169        C  0.33406431  0.39854642  0.15664880    -0.26400
C170        C  0.36272378  0.37456231  0.12252241    -0.14500
C171        C  0.36559537  0.32015609  0.12265966     0.36100
C172        C  0.34120779  0.29170686  0.15803082    -0.25900
C173        C  0.31003504  0.31370008  0.19073914    -0.15100
C174        C  0.30839196  0.36916804  0.19108462     0.37200
N175        N  0.28366658  0.39765891  0.22778559    -0.89400
H176        H  0.33311814  0.44060079  0.15849237     0.18300
H177        H  0.35037051  0.25240910  0.16122177     0.18300
N178        N  0.39377353  0.29198352  0.08849068    -0.88400
H179        H  0.29477165  0.38921200  0.26520641     0.35700
H180        H  0.25190752  0.38755426  0.22408417     0.40800
H181        H  0.40750593  0.31595733  0.06005351     0.40400
H182        H  0.37535694  0.26540856  0.06742508     0.35300
O183        O  0.43343855  0.38996773  0.90240180    -0.75400
O184        O  0.38145989  0.43392538  0.94505153    -0.54300
C185        C  0.39421871  0.39912541  0.91238285     0.78300
O186        O  0.07667336  0.40096482  0.60655975    -0.60000
O187        O  0.12714785  0.44216762  0.55722017    -0.53000
C188        C  0.11552153  0.41135286  0.59448650     0.70300
O189        O  0.43371105  0.39389008  0.60336942    -0.74600
O190        O  0.38208844  0.43930582  0.56055701    -0.55100
C191        C  0.39472724  0.40484594  0.59350206     0.76400
O192        O  0.07504163  0.39528298  0.89668951    -0.59700
O193        O  0.12663413  0.44098228  0.93884472    -0.52800
C194        C  0.11409739  0.40594533  0.90641148     0.72900
Zr195      Zr  0.00419293  0.42085035  0.92222370     2.54700
O196        O  0.00669599  0.32638408  0.91985488    -0.80300
O197        O  0.00327325  0.42450919  0.82686274    -0.93700
Zr198      Zr  0.00492968  0.42086567  0.57742250     2.64700
O199        O  0.50691008  0.32523562  0.56643983    -0.98600
O200        O  0.00240544  0.42014961  0.67278824    -0.80700
O201        O  0.46278167  0.41798974  0.00107221    -0.84100
O202        O  0.04589332  0.41915454  0.49962259    -2.18800
O203        O  0.07587124  0.10127607  0.89918391    -0.67400
O204        O  0.12654939  0.05764162  0.94560216    -0.52000
C205        C  0.11469934  0.09183293  0.91220349     0.71300
O206        O  0.43532724  0.09991239  0.60227248    -0.60400
O207        O  0.38358290  0.05485179  0.55928286    -0.52300
C208        C  0.39647692  0.08853677  0.59313071     0.73100
O209        O  0.07530160  0.10151191  0.59638951    -0.71700
O210        O  0.12631923  0.05773657  0.55199246    -0.50400
C211        C  0.11421349  0.09258674  0.58456284     0.74500
O212        O  0.42953856  0.09937754  0.89722621    -0.67100
O213        O  0.38019229  0.05000866  0.94090815    -0.54300
C214        C  0.39092749  0.08564971  0.90790099     0.72900
Zr215      Zr  0.50238730  0.07379438  0.92088174     2.77500
O216        O  0.50150022  0.16841132  0.92097282    -0.97800
O217        O  0.50240587  0.06896850  0.82562674    -0.78600
Zr218      Zr  0.50484344  0.07287284  0.57510517     2.70100
O219        O  0.00508498  0.16801546  0.57250285    -0.79900
O220        O  0.50739126  0.06579621  0.67019765    -0.99000
Zr221      Zr  0.42097173  0.49514160  0.00023626     2.21500
Zr222      Zr  0.08678447  0.99713869  0.49836698     2.11100
O223        O  0.04470422  0.07426958  0.49674488    -2.47700
O224        O  0.46163350  0.07377527  0.99919624    -0.79700
O225        O  0.04561633  0.99803127  0.91949335    -0.71900
O226        O  0.46281255  0.49521576  0.57817775    -2.32800
O227        O  0.46205500  0.49540720  0.92132132    -2.29000
O228        O  0.04665179  0.99792610  0.57756896    -0.73600
H229        H  0.06402820  0.38903649  0.49971286     0.78400
H230        H  0.44523369  0.49514033  0.60923647     0.79400
H231        H  0.06213986  0.10521349  0.49665783     0.81700
H232        H  0.44392420  0.49457488  0.89090070     0.79300
H233        H  0.49338572  0.44764830  0.68332686     0.42300
H234        H  0.02938998  0.04572939  0.67794961     0.41300
H235        H  0.52467736  0.17864979  0.55053764     0.41000
H236        H  0.02538927  0.17907926  0.94412302     0.38900
H237        H  0.97743857  0.05064561  0.81632881     0.42000
H238        H  0.47494629  0.43576836  0.81896530     0.36800
H239        H  0.48934349  0.31453640  0.95456511     0.42900
H240        H  0.03478966  0.31820205  0.55734426     0.39300
H241        H  0.51389742  0.17860290  0.88673978     0.44300
H242        H  0.00175117  0.38769081  0.81584974     0.44800
H243        H  0.00900404  0.31498776  0.60979036     0.43100
H244        H  0.52061636  0.09873350  0.68189575     0.43500
C245        C  0.22701035  0.21202309  0.77664827    -0.02600
C246        C  0.22766847  0.27308440  0.78153527    -0.02600
C247        C  0.23024889  0.27877240  0.71951014    -0.02600
C248        C  0.22871323  0.21730172  0.71525550    -0.02600
C249        C  0.27626261  0.21119512  0.77935440    -0.02600
C250        C  0.27859541  0.21567057  0.71757987    -0.02600
C251        C  0.27983188  0.27709195  0.72234231    -0.02600
C252        C  0.27762502  0.27206412  0.78372331    -0.02600
C253        C  0.14963597  0.10623166  0.82959114    -0.26400
C254        C  0.14793295  0.11870928  0.88216524    -0.14500
C255        C  0.17747471  0.15491169  0.90269675     0.36100
C256        C  0.20477415  0.18169855  0.86773657    -0.25900
C257        C  0.20290684  0.17350198  0.81297269    -0.15100
C258        C  0.17760545  0.13104853  0.79555437     0.37200
N259        N  0.18130303  0.10919369  0.74487048    -0.89400
H260        H  0.12924487  0.07563299  0.81452382     0.18300
H261        H  0.22536508  0.21180450  0.88306985     0.18300
N262        N  0.17922506  0.16742400  0.95749688    -0.88400
H263        H  0.15108931  0.10822589  0.72807249     0.35700
H264        H  0.19131837  0.07069393  0.74877851     0.40800
H265        H  0.15705901  0.14590928  0.97903303     0.40400
H266        H  0.17082359  0.20645771  0.96147649     0.35300
C267        C  0.18419802  0.36335516  0.60297632    -0.26400
C268        C  0.14844594  0.38521092  0.62641039    -0.14500
C269        C  0.14262150  0.37865367  0.68042252     0.36100
C270        C  0.16978655  0.34595597  0.70843073    -0.25900
C271        C  0.20415991  0.31898386  0.68544458    -0.15100
C272        C  0.21235468  0.33155642  0.63161825     0.37200
N273        N  0.24968242  0.31489587  0.60514956    -0.89400
H274        H  0.19002099  0.37004713  0.56161260     0.18300
H275        H  0.16010095  0.33884339  0.74741732     0.18300
N276        N  0.10815533  0.40429230  0.70675310    -0.88400
H277        H  0.26672007  0.34797895  0.59362223     0.35700
H278        H  0.24023401  0.29639896  0.57062245     0.40800
H279        H  0.11365045  0.44431453  0.70402227     0.40400
H280        H  0.10768021  0.39525911  0.74672267     0.35300
C281        C  0.34258951  0.15571063  0.70635995    -0.26400
C282        C  0.30792364  0.18085097  0.68279909    -0.14500
C283        C  0.30578932  0.17744580  0.62655810     0.36100
C284        C  0.33358908  0.14513062  0.59885556    -0.25900
C285        C  0.36516177  0.11733620  0.62435636    -0.15100
C286        C  0.36985242  0.12322263  0.67887836     0.37200
N287        N  0.40211993  0.09674419  0.70788518    -0.89400
H288        H  0.35096411  0.16278999  0.74625585     0.18300
H289        H  0.33148774  0.14340706  0.55649262     0.18300
N290        N  0.27781625  0.20816666  0.59556177    -0.88400
H291        H  0.43185561  0.11064118  0.69630250     0.35700
H292        H  0.39999570  0.05697779  0.69999802     0.40800
H293        H  0.25663898  0.22639683  0.62000340     0.40400
H294        H  0.25982247  0.18336741  0.57195541     0.35300
C295        C  0.13140380  0.17166692  0.63408234    -0.26400
C296        C  0.14604143  0.12591347  0.61101315    -0.14500
C297        C  0.18849108  0.11134328  0.61956538     0.36100
C298        C  0.21424297  0.14198479  0.65182000    -0.25900
C299        C  0.19943696  0.18755789  0.67677283    -0.15100
C300        C  0.15602928  0.20025916  0.66874936     0.37200
N301        N  0.13339464  0.23706422  0.69938440    -0.89400
H302        H  0.09873186  0.18351857  0.62887971     0.18300
H303        H  0.24438982  0.12579269  0.66191807     0.18300
N304        N  0.20577465  0.06407711  0.59937660    -0.88400
H305        H  0.12365619  0.26711778  0.67467040     0.35700
H306        H  0.15252941  0.25151108  0.72847620     0.40800
H307        H  0.20482130  0.06542078  0.55847424     0.40400
H308        H  0.18741569  0.03283022  0.61291691     0.35300
C309        C  0.37841145  0.33992285  0.83849025    -0.26400
C310        C  0.36310757  0.36696233  0.88222708    -0.14500
C311        C  0.32043222  0.35905855  0.89705516     0.36100
C312        C  0.29429447  0.32647472  0.86624475    -0.25900
C313        C  0.30858963  0.30337302  0.81914436    -0.15100
C314        C  0.35292334  0.30685501  0.80890968     0.37200
N315        N  0.37483502  0.27442157  0.77244150    -0.89400
H316        H  0.41158103  0.34274335  0.82754735     0.18300
H317        H  0.26358354  0.31606132  0.88162991     0.18300
N318        N  0.30393677  0.38263753  0.94379336    -0.88400
H319        H  0.38847760  0.29807949  0.74356636     0.35700
H320        H  0.35467808  0.24798547  0.75504411     0.40800
H321        H  0.31957489  0.36605805  0.97575821     0.40400
H322        H  0.27172324  0.37382817  0.94841171     0.35300
C323        C  0.33248211  0.09035432  0.84184386    -0.26400
C324        C  0.35641655  0.11437462  0.88131016    -0.14500
C325        C  0.34655094  0.16583572  0.89504984     0.36100
C326        C  0.31774371  0.19371896  0.86440756    -0.25900
C327        C  0.29939628  0.17361979  0.81836506    -0.15100
C328        C  0.30332425  0.11870539  0.81115322     0.37200
N329        N  0.27962234  0.09054401  0.77253796    -0.89400
H330        H  0.33748217  0.04957006  0.83353410     0.18300
H331        H  0.30881341  0.23076509  0.87910634     0.18300
N332        N  0.36466111  0.19117691  0.94003885    -0.88400
H333        H  0.30094132  0.07247046  0.74711355     0.35700
H334        H  0.26173667  0.11573692  0.74995055     0.40800
H335        H  0.38472751  0.16665009  0.96096672     0.40400
H336        H  0.33978761  0.20031532  0.96553937     0.35300
C337        C  0.13375309  0.32162350  0.86912997    -0.26400
C338        C  0.14548018  0.37300066  0.87895316    -0.14500
C339        C  0.18371393  0.39190127  0.85771020     0.36100
C340        C  0.20904379  0.35849313  0.82716133    -0.25900
C341        C  0.19858055  0.30564691  0.81844567    -0.15100
C342        C  0.15796590  0.28902036  0.83741872     0.37200
N343        N  0.13738759  0.24268577  0.81991337    -0.89400
H344        H  0.10353767  0.30708805  0.88358903     0.18300
H345        H  0.23730584  0.37421068  0.80994054     0.18300
N346        N  0.19617016  0.44507826  0.86570580    -0.88400
H347        H  0.10981616  0.25352532  0.80007929     0.35700
H348        H  0.12683545  0.22217479  0.85286487     0.40800
H349        H  0.17395234  0.46860349  0.84687055     0.40400
H350        H  0.22543811  0.45268617  0.84781425     0.35300
C351        C  0.33423410  0.39804493  0.65591331    -0.26400
C352        C  0.36281474  0.37378238  0.62186795    -0.14500
C353        C  0.36549847  0.31936734  0.62218846     0.36100
C354        C  0.34129129  0.29124065  0.65793508    -0.25900
C355        C  0.31020469  0.31348501  0.69052634    -0.15100
C356        C  0.30861395  0.36894516  0.69062670     0.37200
N357        N  0.28422603  0.39768609  0.72751127    -0.89400
H358        H  0.33340594  0.44011136  0.65756614     0.18300
H359        H  0.35056040  0.25201870  0.66152990     0.18300
N360        N  0.39325181  0.29086480  0.58779718    -0.88400
H361        H  0.29551974  0.38928628  0.76486224     0.35700
H362        H  0.25240735  0.38773426  0.72424112     0.40800
H363        H  0.40689259  0.31470537  0.55918173     0.40400
H364        H  0.37451479  0.26439858  0.56700964     0.35300
O365        O  0.43321330  0.89012887  0.40250150    -0.75400
O366        O  0.38124119  0.93389328  0.44532981    -0.54300
C367        C  0.39400038  0.89915285  0.41253863     0.78300
O368        O  0.07635433  0.90089320  0.10660585    -0.60000
O369        O  0.12703468  0.94229035  0.05781569    -0.53000
C370        C  0.11522689  0.91161448  0.09508582     0.70300
O371        O  0.43346809  0.89470051  0.10308194    -0.74600
O372        O  0.38173091  0.94057567  0.06108262    -0.55100
C373        C  0.39444997  0.90595948  0.09376667     0.76400
O374        O  0.07511105  0.89511362  0.39702575    -0.59700
O375        O  0.12664506  0.94023914  0.43995109    -0.52800
C376        C  0.11412184  0.90553422  0.40711469     0.72900
Zr377      Zr  0.00443895  0.91999287  0.42350848     2.54700
O378        O  0.00674832  0.82549097  0.42484607    -0.80300
O379        O  0.00354916  0.92048063  0.32806023    -0.93700
Zr380      Zr  0.00476412  0.91938840  0.07626138     2.64700
O381        O  0.50709315  0.82531224  0.06788825    -0.98600
O382        O  0.00408696  0.91291845  0.17144613    -0.80700
O383        O  0.46274498  0.91818712  0.50152222    -0.84100
O384        O  0.04597121  0.91866677  0.99868064    -2.18800
O385        O  0.07551497  0.60180447  0.39951647    -0.67400
O386        O  0.12631178  0.55788930  0.44548831    -0.52000
C387        C  0.11439717  0.59230342  0.41239424     0.71300
O388        O  0.43516165  0.60019111  0.10204037    -0.60400
O389        O  0.38365311  0.55478088  0.05902489    -0.52300
C390        C  0.39634727  0.58870305  0.09277996     0.73100
O391        O  0.07577631  0.59908931  0.09772657    -0.71700
O392        O  0.12672872  0.55652048  0.05201371    -0.50400
C393        C  0.11464173  0.59085130  0.08513719     0.74500
O394        O  0.42950873  0.60045862  0.39847988    -0.67100
O395        O  0.38005854  0.55031594  0.44104679    -0.54300
C396        C  0.39085990  0.58641931  0.40856307     0.72900
Zr397      Zr  0.50239507  0.57495638  0.42236280     2.77500
O398        O  0.50096032  0.66950807  0.42599682    -0.97800
O399        O  0.50287557  0.57350798  0.32701896    -0.78600
Zr400      Zr  0.50455164  0.57235153  0.07521528     2.70100
O401        O  0.00497088  0.66554845  0.07764784    -0.79900
O402        O  0.50561272  0.56515351  0.17030072    -0.99000
Zr403      Zr  0.42082257  0.99522093  0.50064318     2.21500
Zr404      Zr  0.08670747  0.49660386  0.99825848     2.11100
O405        O  0.04470382  0.57371962  0.99851211    -2.47700
O406        O  0.46150456  0.57402527  0.50046381    -0.79700
O407        O  0.04532113  0.49789709  0.41967901    -0.71900
O408        O  0.46297617  0.99547629  0.07794712    -2.32800
O409        O  0.46165166  0.99544341  0.42147624    -2.29000
O410        O  0.04671068  0.49531450  0.07762560    -0.73600
H411        H  0.06403031  0.88847348  0.99865715     0.78400
H412        H  0.44553724  0.99561012  0.10912683     0.79400
H413        H  0.06219980  0.60461250  0.99873519     0.81700
H414        H  0.44341277  0.99460114  0.39115190     0.79300
H415        H  0.51260863  0.94839295  0.18351860     0.42300
H416        H  0.03246659  0.54312153  0.17900185     0.41300
H417        H  0.48855963  0.67701997  0.04463832     0.41000
H418        H  0.02529715  0.67974437  0.43899502     0.38900
H419        H  0.02337615  0.54039350  0.31754314     0.42000
H420        H  0.47591714  0.93903193  0.31907508     0.36800
H421        H  0.49466071  0.81485957  0.45760837     0.42900
H422        H  0.03681034  0.81585078  0.06962627     0.39300
H423        H  0.50826640  0.68091535  0.38998699     0.44300
H424        H  0.99576889  0.88446058  0.31834151     0.44800
H425        H  0.99370146  0.81175928  0.10001347     0.43100
H426        H  0.51577124  0.59951426  0.18244374     0.43500
C427        C  0.22693935  0.71192514  0.27664822    -0.02600
C428        C  0.22737152  0.77299646  0.28141740    -0.02600
C429        C  0.22966745  0.77855321  0.21940501    -0.02600
C430        C  0.22838118  0.71706812  0.21522035    -0.02600
C431        C  0.27620661  0.71141006  0.27901443    -0.02600
C432        C  0.27825707  0.71582840  0.21716164    -0.02600
C433        C  0.27931801  0.77726123  0.22185045    -0.02600
C434        C  0.27736665  0.77231294  0.28325762    -0.02600
C435        C  0.14969314  0.60621926  0.32999574    -0.26400
C436        C  0.14769286  0.61914786  0.38242233    -0.14500
C437        C  0.17728247  0.65532754  0.40294009     0.36100
C438        C  0.20480392  0.68181320  0.36796312    -0.25900
C439        C  0.20299900  0.67341545  0.31320505    -0.15100
C440        C  0.17775575  0.63084883  0.29594640     0.37200
N441        N  0.18154154  0.60875372  0.24538306    -0.89400
H442        H  0.12938397  0.57548976  0.31502523     0.18300
H443        H  0.22538070  0.71197288  0.38322068     0.18300
N444        N  0.17877307  0.66821449  0.45766749    -0.88400
H445        H  0.15134143  0.60763069  0.22855130     0.35700
H446        H  0.19160110  0.57029527  0.24950228     0.40800
H447        H  0.15641340  0.64693863  0.47914445     0.40400
H448        H  0.17045648  0.70731161  0.46130045     0.35300
C449        C  0.18423675  0.86487650  0.10415785    -0.26400
C450        C  0.14796691  0.88566136  0.12734165    -0.14500
C451        C  0.14123409  0.87745482  0.18099039     0.36100
C452        C  0.16821466  0.84431653  0.20870609    -0.25900
C453        C  0.20323405  0.81856910  0.18577040    -0.15100
C454        C  0.21199930  0.83234083  0.13242690     0.37200
N455        N  0.24924409  0.81549869  0.10589560    -0.89400
H456        H  0.19057674  0.87258484  0.06308514     0.18300
H457        H  0.15792839  0.83582181  0.24723564     0.18300
N458        N  0.10605943  0.90180298  0.20716506    -0.88400
H459        H  0.26655182  0.84849015  0.09471804     0.35700
H460        H  0.23972600  0.79741243  0.07118385     0.40800
H461        H  0.11116359  0.94196090  0.20573366     0.40400
H462        H  0.10500728  0.89161702  0.24684268     0.35300
C463        C  0.34228589  0.65635203  0.20567442    -0.26400
C464        C  0.30749322  0.68113517  0.18215833    -0.14500
C465        C  0.30509303  0.67727382  0.12591440     0.36100
C466        C  0.33292168  0.64481277  0.09829989    -0.25900
C467        C  0.36484749  0.61755882  0.12383745    -0.15100
C468        C  0.36963118  0.62393554  0.17830390     0.37200
N469        N  0.40208511  0.59799099  0.20744926    -0.89400
H470        H  0.35066015  0.66362910  0.24553396     0.18300
H471        H  0.33061044  0.64262777  0.05598030     0.18300
N472        N  0.27682067  0.70758607  0.09484069    -0.88400
H473        H  0.43169648  0.61223872  0.19583586     0.35700
H474        H  0.40027722  0.55816041  0.19979350     0.40800
H475        H  0.25582557  0.72627893  0.11921259     0.40400
H476        H  0.25870078  0.68248378  0.07170109     0.35300
C477        C  0.13142381  0.67028137  0.13412110    -0.26400
C478        C  0.14634210  0.62459433  0.11119471    -0.14500
C479        C  0.18886611  0.61043762  0.11972474     0.36100
C480        C  0.21435108  0.64126055  0.15211174    -0.25900
C481        C  0.19929478  0.68683003  0.17688090    -0.15100
C482        C  0.15579582  0.69900063  0.16893321     0.37200
N483        N  0.13280879  0.73497601  0.20014973    -0.89400
H484        H  0.09867219  0.68179974  0.12890398     0.18300
H485        H  0.24450535  0.62522240  0.16237635     0.18300
N486        N  0.20652114  0.56349197  0.09926422    -0.88400
H487        H  0.12251610  0.76508560  0.17586623     0.35700
H488        H  0.15199368  0.74948976  0.22915950     0.40800
H489        H  0.20548898  0.56505062  0.05836965     0.40400
H490        H  0.18841304  0.53195877  0.11263083     0.35300
C491        C  0.37835819  0.83959463  0.33867511    -0.26400
C492        C  0.36295224  0.86691809  0.38222495    -0.14500
C493        C  0.32014680  0.85941176  0.39660531     0.36100
C494        C  0.29395119  0.82719555  0.36546887    -0.25900
C495        C  0.30835299  0.80380416  0.31856442    -0.15100
C496        C  0.35277175  0.80697494  0.30862999     0.37200
N497        N  0.37460235  0.77487761  0.27176086    -0.89400
H498        H  0.41161990  0.84203195  0.32808629     0.18300
H499        H  0.26314742  0.81704012  0.38067424     0.18300
N500        N  0.30361222  0.88280290  0.44341170    -0.88400
H501        H  0.38824955  0.79885174  0.24314652     0.35700
H502        H  0.35436082  0.74881842  0.25395298     0.40800
H503        H  0.31900469  0.86579692  0.47533554     0.40400
H504        H  0.27132578  0.87428106  0.44776484     0.35300
C505        C  0.33260342  0.59094270  0.34216989    -0.26400
C506        C  0.35641565  0.61512592  0.38166378    -0.14500
C507        C  0.34656708  0.66672992  0.39497016     0.36100
C508        C  0.31773575  0.69439063  0.36413664    -0.25900
C509        C  0.29950812  0.67407018  0.31812185    -0.15100
C510        C  0.30357211  0.61914627  0.31114154     0.37200
N511        N  0.28001511  0.59077245  0.27255513    -0.89400
H512        H  0.33761225  0.55011432  0.33409555     0.18300
H513        H  0.30869222  0.73145746  0.37868183     0.18300
N514        N  0.36471230  0.69245997  0.43970627    -0.88400
H515        H  0.30143513  0.57277890  0.24720197     0.35700
H516        H  0.26202780  0.61580970  0.24992100     0.40800
H517        H  0.38481793  0.66811521  0.46078674     0.40400
H518        H  0.33986757  0.70179969  0.46517417     0.35300
C519        C  0.13393712  0.82116963  0.37018261    -0.26400
C520        C  0.14543132  0.87271650  0.37946282    -0.14500
C521        C  0.18304733  0.89202263  0.35701536     0.36100
C522        C  0.20827157  0.85868218  0.32626483    -0.25900
C523        C  0.19821294  0.80561634  0.31826490    -0.15100
C524        C  0.15792778  0.78868133  0.33807957     0.37200
N525        N  0.13724832  0.74233745  0.32077836    -0.89400
H526        H  0.10398378  0.80645835  0.38529634     0.18300
H527        H  0.23624174  0.87455084  0.30858230     0.18300
N528        N  0.19495605  0.94552171  0.36404517    -0.88400
H529        H  0.10962697  0.75320463  0.30106879     0.35700
H530        H  0.12671623  0.72195820  0.35381489     0.40800
H531        H  0.17209293  0.96839196  0.34557135     0.40400
H532        H  0.22378471  0.95347697  0.34523733     0.35300
C533        C  0.33423945  0.89874669  0.15661163    -0.26400
C534        C  0.36262588  0.87478349  0.12215129    -0.14500
C535        C  0.36491926  0.82035643  0.12151172     0.36100
C536        C  0.34062529  0.79184534  0.15693680    -0.25900
C537        C  0.30972620  0.81384345  0.19006292    -0.15100
C538        C  0.30833557  0.86933617  0.19073163     0.37200
N539        N  0.28352594  0.89782823  0.22732987    -0.89400
H540        H  0.33356840  0.94079320  0.15881744     0.18300
H541        H  0.34951691  0.75244451  0.15957690     0.18300
N542        N  0.39226704  0.79220417  0.08631775    -0.88400
H543        H  0.29449851  0.88933438  0.26479079     0.35700
H544        H  0.25175838  0.88783151  0.22340010     0.40800
H545        H  0.40595535  0.81640472  0.05803988     0.40400
H546        H  0.37321307  0.76637157  0.06517021     0.35300
O547        O  0.43335978  0.89005551  0.90284458    -0.75400
O548        O  0.38123980  0.93376174  0.94555710    -0.54300
C549        C  0.39412244  0.89883361  0.91308906     0.78300
O550        O  0.07684996  0.90130730  0.60738286    -0.60000
O551        O  0.12728176  0.94230223  0.55781896    -0.53000
C552        C  0.11568904  0.91171106  0.59529843     0.70300
O553        O  0.43390720  0.89538142  0.60528476    -0.74600
O554        O  0.38219786  0.94001190  0.56188987    -0.55100
C555        C  0.39492656  0.90604479  0.59531217     0.76400
O556        O  0.07481282  0.89531820  0.89616528    -0.59700
O557        O  0.12636174  0.94007397  0.93951536    -0.52800
C558        C  0.11383308  0.90545470  0.90659722     0.72900
Zr559      Zr  0.00414398  0.92113487  0.92187851     2.54700
O560        O  0.00667006  0.82664642  0.92021791    -0.80300
O561        O  0.00154096  0.92632141  0.82651897    -0.93700
Zr562      Zr  0.00514677  0.92103925  0.57804423     2.64700
O563        O  0.50740515  0.82612609  0.57335666    -0.98600
O564        O  0.00443326  0.92203101  0.67347012    -0.80700
O565        O  0.46270956  0.91844711  0.99976978    -0.84100
O566        O  0.04625805  0.91880725  0.50033819    -2.18800
O567        O  0.07538000  0.60154698  0.89952890    -0.67400
O568        O  0.12614943  0.55732225  0.94525201    -0.52000
C569        C  0.11424876  0.59176961  0.91214888     0.71300
O570        O  0.43465620  0.59828056  0.60336613    -0.60400
O571        O  0.38284954  0.55532050  0.55847913    -0.52300
C572        C  0.39576698  0.58804129  0.59324519     0.73100
O573        O  0.07568995  0.60173598  0.59605026    -0.71700
O574        O  0.12664245  0.55765185  0.55181616    -0.50400
C575        C  0.11462295  0.59270499  0.58423233     0.74500
O576        O  0.43027571  0.59846476  0.89685419    -0.67100
O577        O  0.38071136  0.54949186  0.94061417    -0.54300
C578        C  0.39159287  0.58499058  0.90754261     0.72900
Zr579      Zr  0.50309560  0.57286618  0.92089116     2.77500
O580        O  0.50161343  0.66750483  0.92044498    -0.97800
O581        O  0.50379566  0.56723315  0.82572850    -0.78600
Zr582      Zr  0.50440645  0.57177533  0.57659922     2.70100
O583        O  0.00321271  0.66757606  0.57724513    -0.79900
O584        O  0.50600701  0.56420130  0.67169726    -0.99000
Zr585      Zr  0.42069090  0.99550088  0.00024230     2.21500
Zr586      Zr  0.08662012  0.49739420  0.49823072     2.11100
O587        O  0.04455535  0.57460090  0.49744700    -2.47700
O588        O  0.46190844  0.57345510  0.99882507    -0.79700
O589        O  0.04527292  0.49806244  0.91992717    -0.71900
O590        O  0.46307624  0.99651670  0.57833932    -2.32800
O591        O  0.46134046  0.99637398  0.92094136    -2.29000
O592        O  0.04675559  0.49752226  0.57776749    -0.73600
H593        H  0.06445251  0.88874220  0.50061614     0.78400
H594        H  0.44551789  0.99705938  0.60940244     0.79400
H595        H  0.06199434  0.60554077  0.49740012     0.81700
H596        H  0.44302804  0.99564081  0.89068401     0.79300
H597        H  0.48531058  0.94768313  0.68381890     0.42300
H598        H  0.03334330  0.54816975  0.67821381     0.41300
H599        H  0.49109560  0.67674735  0.54500402     0.41000
H600        H  0.02388677  0.67902057  0.94706475     0.38900
H601        H  0.02325825  0.54344170  0.81775984     0.42000
H602        H  0.47495576  0.94101581  0.81816777     0.36800
H603        H  0.51830853  0.81546401  0.95091347     0.42900
H604        H  0.03289336  0.81774486  0.55661534     0.39300
H605        H  0.51422421  0.67764330  0.88631620     0.44300
H606        H  0.99769832  0.88990125  0.81501115     0.44800
H607        H  0.01082075  0.81559199  0.61162710     0.43100
H608        H  0.51305265  0.59962891  0.68404653     0.43500
C609        C  0.22713462  0.71176885  0.77711442    -0.02600
C610        C  0.22772868  0.77283935  0.78213934    -0.02600
C611        C  0.23030602  0.77872309  0.72013746    -0.02600
C612        C  0.22882493  0.71722887  0.71574865    -0.02600
C613        C  0.27639955  0.71105206  0.77988664    -0.02600
C614        C  0.27868522  0.71570471  0.71809349    -0.02600
C615        C  0.27989620  0.77709531  0.72297586    -0.02600
C616        C  0.27769462  0.77188425  0.78433430    -0.02600
C617        C  0.14927889  0.60616002  0.82951929    -0.26400
C618        C  0.14752048  0.61859639  0.88210002    -0.14500
C619        C  0.17730625  0.65441796  0.90278588     0.36100
C620        C  0.20480445  0.68107140  0.86797268    -0.25900
C621        C  0.20295926  0.67307044  0.81320068    -0.15100
C622        C  0.17749040  0.63078507  0.79562128     0.37200
N623        N  0.18125775  0.60885385  0.74497373    -0.89400
H624        H  0.12877622  0.57571758  0.81435990     0.18300
H625        H  0.22553192  0.71097128  0.88343694     0.18300
N626        N  0.17910851  0.66672108  0.95762662    -0.88400
H627        H  0.15109954  0.60806370  0.72801275     0.35700
H628        H  0.19109923  0.57029184  0.74896462     0.40800
H629        H  0.15676949  0.64538709  0.97906899     0.40400
H630        H  0.17099246  0.70583412  0.96172589     0.35300
C631        C  0.18459207  0.86420707  0.60401186    -0.26400
C632        C  0.14864291  0.88570092  0.62733798    -0.14500
C633        C  0.14264612  0.87878194  0.68128926     0.36100
C634        C  0.16968384  0.84580881  0.70919270    -0.25900
C635        C  0.20423062  0.81912614  0.68622707    -0.15100
C636        C  0.21271738  0.83231426  0.63260794     0.37200
N637        N  0.25032492  0.81623389  0.60635026    -0.89400
H638        H  0.19061501  0.87127363  0.56275409     0.18300
H639        H  0.15983652  0.83835266  0.74805971     0.18300
N640        N  0.10817280  0.90437063  0.70765891    -0.88400
H641        H  0.26721299  0.84959401  0.59530176     0.35700
H642        H  0.24124761  0.79797252  0.57155286     0.40800
H643        H  0.11374595  0.94439278  0.70516062     0.40400
H644        H  0.10762234  0.89513420  0.74758150     0.35300
C645        C  0.34243414  0.65579168  0.70652678    -0.26400
C646        C  0.30778509  0.68097025  0.68312088    -0.14500
C647        C  0.30533113  0.67746349  0.62691930     0.36100
C648        C  0.33277315  0.64472734  0.59912950    -0.25900
C649        C  0.36454550  0.61705990  0.62449173    -0.15100
C650        C  0.36958212  0.62332082  0.67895492     0.37200
N651        N  0.40219131  0.59738597  0.70786001    -0.89400
H652        H  0.35094432  0.66293307  0.74637142     0.18300
H653        H  0.33036483  0.64276053  0.55680491     0.18300
N654        N  0.27739504  0.70843544  0.59607034    -0.88400
H655        H  0.43172250  0.61204256  0.69644363     0.35700
H656        H  0.40062615  0.55759876  0.69991042     0.40800
H657        H  0.25661079  0.72728504  0.62057312     0.40400
H658        H  0.25899977  0.68381196  0.57275100     0.35300
C659        C  0.13191859  0.67183238  0.63368071    -0.26400
C660        C  0.14654172  0.62604192  0.61066203    -0.14500
C661        C  0.18892070  0.61130676  0.61960707     0.36100
C662        C  0.21450948  0.64172051  0.65231748    -0.25900
C663        C  0.19969013  0.68737700  0.67713800    -0.15100
C664        C  0.15636274  0.70017712  0.66876543     0.37200
N665        N  0.13357176  0.73672440  0.69953771    -0.89400
H666        H  0.09931260  0.68382016  0.62820675     0.18300
H667        H  0.24450520  0.62531830  0.66278842     0.18300
N668        N  0.20630614  0.56417425  0.59923839    -0.88400
H669        H  0.12382500  0.76689179  0.67497598     0.35700
H670        H  0.15263904  0.75110434  0.72872952     0.40800
H671        H  0.20548481  0.56578090  0.55833801     0.40400
H672        H  0.18790058  0.53284051  0.61245956     0.35300
C673        C  0.37846291  0.83954241  0.83926591    -0.26400
C674        C  0.36315303  0.86624583  0.88321130    -0.14500
C675        C  0.32060585  0.85783200  0.89829685     0.36100
C676        C  0.29440768  0.82565455  0.86714921    -0.25900
C677        C  0.30868076  0.80298928  0.81983406    -0.15100
C678        C  0.35301494  0.80656389  0.80955962     0.37200
N679        N  0.37495692  0.77437491  0.77288461    -0.89400
H680        H  0.41159362  0.84261201  0.82819934     0.18300
H681        H  0.26368929  0.81509204  0.88242836     0.18300
N682        N  0.30436774  0.88032235  0.94571249    -0.88400
H683        H  0.38861948  0.79821662  0.74417513     0.35700
H684        H  0.35482299  0.74803940  0.75529363     0.40800
H685        H  0.32043136  0.86329658  0.97711352     0.40400
H686        H  0.27226821  0.87103511  0.95061922     0.35300
C687        C  0.33288074  0.59011430  0.84184540    -0.26400
C688        C  0.35712139  0.61397215  0.88111082    -0.14500
C689        C  0.34723420  0.66531881  0.89526384     0.36100
C690        C  0.31832352  0.69340368  0.86487678    -0.25900
C691        C  0.29970068  0.67347796  0.81886449    -0.15100
C692        C  0.30352495  0.61858266  0.81155429     0.37200
N693        N  0.27947052  0.59052437  0.77321293    -0.89400
H694        H  0.33773621  0.54932965  0.83341577     0.18300
H695        H  0.30948492  0.73037235  0.87982803     0.18300
N696        N  0.36530947  0.69024658  0.94052048    -0.88400
H697        H  0.30057121  0.57241433  0.74754391     0.35700
H698        H  0.26152830  0.61579809  0.75080180     0.40800
H699        H  0.38545032  0.66557880  0.96117411     0.40400
H700        H  0.34042307  0.69900638  0.96614168     0.35300
C701        C  0.13332126  0.82127850  0.86888265    -0.26400
C702        C  0.14520978  0.87248136  0.87926236    -0.14500
C703        C  0.18369831  0.89129129  0.85872244     0.36100
C704        C  0.20908706  0.85801009  0.82814231    -0.25900
C705        C  0.19855179  0.80526121  0.81901973    -0.15100
C706        C  0.15779124  0.78864024  0.83752541     0.37200
N707        N  0.13744994  0.74212888  0.82009945    -0.89400
H708        H  0.10292259  0.80684297  0.88284465     0.18300
H709        H  0.23748886  0.87373975  0.81133848     0.18300
N710        N  0.19638099  0.94426334  0.86752036    -0.88400
H711        H  0.10991199  0.75270730  0.80005734     0.35700
H712        H  0.12683828  0.72175053  0.85310279     0.40800
H713        H  0.17447352  0.96821012  0.84866879     0.40400
H714        H  0.22585683  0.95182300  0.85014469     0.35300
C715        C  0.33466109  0.89863847  0.65802552    -0.26400
C716        C  0.36322863  0.87473387  0.62373975    -0.14500
C717        C  0.36599532  0.82029867  0.62357548     0.36100
C718        C  0.34139910  0.79172761  0.65860281    -0.25900
C719        C  0.31035403  0.81370311  0.69147631    -0.15100
C720        C  0.30891142  0.86917530  0.69226791     0.37200
N721        N  0.28432266  0.89756216  0.72921270    -0.89400
H722        H  0.33383767  0.94068493  0.66012416     0.18300
H723        H  0.35023779  0.75228579  0.66134844     0.18300
N724        N  0.39421911  0.79219344  0.58940868    -0.88400
H725        H  0.29553697  0.88900048  0.76655244     0.35700
H726        H  0.25253785  0.88751998  0.72568759     0.40800
H727        H  0.40811866  0.81625208  0.56117504     0.40400
H728        H  0.37582028  0.76578000  0.56811459     0.35300
O729        O  0.93333783  0.39009478  0.40263525    -0.75400
O730        O  0.88124577  0.43357782  0.44552861    -0.54300
C731        C  0.89410032  0.39874757  0.41290767     0.78300
O732        O  0.57678131  0.40117859  0.10755620    -0.60000
O733        O  0.62727293  0.44184059  0.05781130    -0.53000
C734        C  0.61562402  0.41151096  0.09540532     0.70300
O735        O  0.93360404  0.39389171  0.10341351    -0.74600
O736        O  0.88197770  0.43922547  0.06061950    -0.55100
C737        C  0.89462976  0.40489021  0.09367500     0.76400
O738        O  0.57449062  0.39490497  0.39711656    -0.59700
O739        O  0.62611215  0.44072802  0.43917942    -0.52800
C740        C  0.61355137  0.40557476  0.40683009     0.72900
Zr741      Zr  0.50383883  0.42168599  0.42228896     2.54700
O742        O  0.50434571  0.32717117  0.41826091    -0.80300
O743        O  0.50298028  0.42729064  0.32702366    -0.93700
Zr744      Zr  0.50499721  0.41983951  0.07772573     2.64700
O745        O  0.00726373  0.32445049  0.06680536    -0.98600
O746        O  0.50347395  0.41781334  0.17312317    -0.80700
O747        O  0.96280979  0.41889157  0.50066083    -0.84100
O748        O  0.54627087  0.41803414  0.00021285    -2.18800
O749        O  0.57626676  0.09900499  0.39843810    -0.67400
O750        O  0.62688025  0.05687547  0.44634708    -0.52000
C751        C  0.61508415  0.09026589  0.41212814     0.71300
O752        O  0.93532019  0.09897920  0.10281218    -0.60400
O753        O  0.88365105  0.05509529  0.05855157    -0.52300
C754        C  0.89645949  0.08821572  0.09303157     0.73100
O755        O  0.57539935  0.10136503  0.09591112    -0.71700
O756        O  0.62640785  0.05765843  0.05146028    -0.50400
C757        C  0.61430435  0.09263719  0.08390856     0.74500
O758        O  0.92936945  0.09852545  0.39747281    -0.67100
O759        O  0.87988629  0.04905162  0.44076310    -0.54300
C760        C  0.89067774  0.08486517  0.40796963     0.72900
Zr761      Zr  0.00262380  0.07291918  0.42011431     2.77500
O762        O  0.00082242  0.16744454  0.41669560    -0.97800
O763        O  0.00255827  0.06649881  0.32497914    -0.78600
Zr764      Zr  0.00476942  0.07197551  0.07539280     2.70100
O765        O  0.50355518  0.16654884  0.07643967    -0.79900
O766        O  0.00758636  0.06609411  0.17054048    -0.99000
Zr767      Zr  0.92059261  0.49564105  0.50019851     2.21500
Zr768      Zr  0.58667782  0.99715688  0.99787791     2.11100
O769        O  0.54447910  0.07408504  0.99745647    -2.47700
O770        O  0.96155138  0.07371683  0.49812363    -0.79700
O771        O  0.54556938  0.99652075  0.42007444    -0.71900
O772        O  0.96303541  0.49454128  0.07814254    -2.32800
O773        O  0.96139071  0.49635167  0.42104406    -2.29000
O774        O  0.54664915  0.99638883  0.07725353    -0.73600
H775        H  0.56443638  0.38793590  0.00039288     0.78400
H776        H  0.94550142  0.49452911  0.10923894     0.79400
H777        H  0.56187761  0.10505314  0.99746858     0.81700
H778        H  0.94313051  0.49555398  0.39074168     0.79300
H779        H  0.01348003  0.44665799  0.18370782     0.42300
H780        H  0.53482096  0.04734414  0.17764024     0.41300
H781        H  0.99422573  0.17669039  0.04173215     0.41000
H782        H  0.52713652  0.17700496  0.44457711     0.38900
H783        H  0.51543379  0.03510713  0.31673173     0.42000
H784        H  0.97512193  0.44116711  0.31876045     0.36800
H785        H  0.99762940  0.31527425  0.45584631     0.42900
H786        H  0.53695595  0.31702151  0.06342172     0.39300
H787        H  0.00817381  0.17621498  0.37996437     0.44300
H788        H  0.49542883  0.39176801  0.31539798     0.44800
H789        H  0.50239001  0.31291969  0.10745332     0.43100
H790        H  0.01718870  0.10094836  0.18194788     0.43500
C791        C  0.72672298  0.21183634  0.27666517    -0.02600
C792        C  0.72751426  0.27293039  0.28168757    -0.02600
C793        C  0.73016567  0.27861523  0.21964289    -0.02600
C794        C  0.72852444  0.21717728  0.21526392    -0.02600
C795        C  0.77600662  0.21091645  0.27945573    -0.02600
C796        C  0.77841030  0.21542442  0.21764620    -0.02600
C797        C  0.77976847  0.27682252  0.22246240    -0.02600
C798        C  0.77749157  0.27178444  0.28385992    -0.02600
C799        C  0.65012199  0.10480811  0.32958858    -0.26400
C800        C  0.64839359  0.11716958  0.38216536    -0.14500
C801        C  0.67753639  0.15391731  0.40261160     0.36100
C802        C  0.70464414  0.18097810  0.36762702    -0.25900
C803        C  0.70263153  0.17305858  0.31282796    -0.15100
C804        C  0.67733701  0.13056894  0.29532244     0.37200
N805        N  0.67983747  0.11003362  0.24398631    -0.89400
H806        H  0.62989930  0.07403942  0.31451911     0.18300
H807        H  0.72505276  0.21126230  0.38297729     0.18300
N808        N  0.67894611  0.16687124  0.45732168    -0.88400
H809        H  0.64923269  0.10940319  0.22826326     0.35700
H810        H  0.69006336  0.07150963  0.24645523     0.40800
H811        H  0.65689007  0.14522330  0.47888719     0.40400
H812        H  0.67014329  0.20580934  0.46093203     0.35300
C813        C  0.68448281  0.36421701  0.10382210    -0.26400
C814        C  0.64856009  0.38559143  0.12732031    -0.14500
C815        C  0.64244113  0.37831262  0.18116302     0.36100
C816        C  0.66941170  0.34518660  0.20882476    -0.25900
C817        C  0.70405157  0.31882801  0.18577990    -0.15100
C818        C  0.71252403  0.33208878  0.13219328     0.37200
N819        N  0.74986814  0.31555157  0.10565656    -0.89400
H820        H  0.69045598  0.37140500  0.06257117     0.18300
H821        H  0.65930871  0.33718961  0.24747595     0.18300
N822        N  0.60782589  0.40353237  0.20762165    -0.88400
H823        H  0.76693230  0.34869121  0.09435123     0.35700
H824        H  0.74045175  0.29725971  0.07100771     0.40800
H825        H  0.61327680  0.44359521  0.20546219     0.40400
H826        H  0.60720425  0.39398700  0.24747102     0.35300
C827        C  0.84234323  0.15540414  0.20631816    -0.26400
C828        C  0.80772616  0.18062111  0.18277142    -0.14500
C829        C  0.80560032  0.17722380  0.12650692     0.36100
C830        C  0.83336462  0.14479732  0.09878777    -0.25900
C831        C  0.86504761  0.11707984  0.12425103    -0.15100
C832        C  0.86968128  0.12300491  0.17880566     0.37200
N833        N  0.90192584  0.09656714  0.20787716    -0.89400
H834        H  0.85061200  0.16236918  0.24627480     0.18300
H835        H  0.83121706  0.14303953  0.05642979     0.18300
N836        N  0.77769968  0.20808668  0.09550998    -0.88400
H837        H  0.93165968  0.11064150  0.19651471     0.35700
H838        H  0.89992865  0.05681421  0.19988117     0.40800
H839        H  0.75672875  0.22673486  0.11992556     0.40400
H840        H  0.75952555  0.18338724  0.07200562     0.35300
C841        C  0.63128245  0.17172279  0.13367797    -0.26400
C842        C  0.64608260  0.12621378  0.11020941    -0.14500
C843        C  0.68858781  0.11183816  0.11865182     0.36100
C844        C  0.71415340  0.14221548  0.15136851    -0.25900
C845        C  0.69930283  0.18767297  0.17647077    -0.15100
C846        C  0.65582646  0.20017145  0.16860813     0.37200
N847        N  0.63302507  0.23622134  0.19997419    -0.89400
H848        H  0.59853188  0.18334853  0.12871269     0.18300
H849        H  0.74419369  0.12586719  0.16166907     0.18300
N850        N  0.70615311  0.06500728  0.09782366    -0.88400
H851        H  0.62283412  0.26646468  0.17579150     0.35700
H852        H  0.65228204  0.25059379  0.22898655     0.40800
H853        H  0.70508071  0.06684347  0.05694083     0.40400
H854        H  0.68806738  0.03340137  0.11105688     0.35300
C855        C  0.87851365  0.33867537  0.33948391    -0.26400
C856        C  0.86310944  0.36607287  0.38297350    -0.14500
C857        C  0.82032091  0.35847587  0.39745690     0.36100
C858        C  0.79410293  0.32624672  0.36633699    -0.25900
C859        C  0.80851071  0.30290901  0.31941253    -0.15100
C860        C  0.85293287  0.30600295  0.30951670     0.37200
N861        N  0.87476275  0.27383459  0.27271919    -0.89400
H862        H  0.91175826  0.34115739  0.32882586     0.18300
H863        H  0.76321294  0.31624752  0.38140190     0.18300
N864        N  0.80378242  0.38198415  0.44420190    -0.88400
H865        H  0.88844535  0.29774433  0.24407672     0.35700
H866        H  0.85453336  0.24768044  0.25501888     0.40800
H867        H  0.81927758  0.36519893  0.47616764     0.40400
H868        H  0.77152976  0.37332020  0.44866495     0.35300
C869        C  0.83204749  0.08994403  0.34196852    -0.26400
C870        C  0.85617466  0.11384432  0.38137966    -0.14500
C871        C  0.84646609  0.16540486  0.39506662     0.36100
C872        C  0.81745243  0.19329772  0.36465773    -0.25900
C873        C  0.79906324  0.17331033  0.31856297    -0.15100
C874        C  0.80290312  0.11841828  0.31131201     0.37200
N875        N  0.77906031  0.09037553  0.27272299    -0.89400
H876        H  0.83690328  0.04914038  0.33364105     0.18300
H877        H  0.80856815  0.23034975  0.37943054     0.18300
N878        N  0.86508357  0.19093083  0.43963214    -0.88400
H879        H  0.80029944  0.07241391  0.24711996     0.35700
H880        H  0.76100724  0.11556190  0.25030981     0.40800
H881        H  0.88545159  0.16653009  0.46025478     0.40400
H882        H  0.84051857  0.20015147  0.46555138     0.35300
C883        C  0.63364344  0.32119383  0.36983483    -0.26400
C884        C  0.64498724  0.37275542  0.37923465    -0.14500
C885        C  0.68277041  0.39209340  0.35715774     0.36100
C886        C  0.70845344  0.35866688  0.32697366    -0.25900
C887        C  0.69835693  0.30560681  0.31862414    -0.15100
C888        C  0.65789608  0.28874069  0.33796184     0.37200
N889        N  0.63740767  0.24231745  0.32056513    -0.89400
H890        H  0.60361441  0.30642234  0.38464722     0.18300
H891        H  0.73663077  0.37454860  0.30969216     0.18300
N892        N  0.69429067  0.44577354  0.36380764    -0.88400
H893        H  0.60975024  0.25302239  0.30084107     0.35700
H894        H  0.62701775  0.22175256  0.35356276     0.40800
H895        H  0.67140775  0.46824077  0.34486071     0.40400
H896        H  0.72318657  0.45383518  0.34521213     0.35300
C897        C  0.83441309  0.39788201  0.15649554    -0.26400
C898        C  0.86284138  0.37376679  0.12216598    -0.14500
C899        C  0.86562288  0.31934551  0.12235365     0.36100
C900        C  0.84134284  0.29102623  0.15793715    -0.25900
C901        C  0.81028726  0.31317467  0.19070408    -0.15100
C902        C  0.80883692  0.36862690  0.19112573     0.37200
N903        N  0.78443285  0.39719222  0.22811130    -0.89400
H904        H  0.83360416  0.43993984  0.15835710     0.18300
H905        H  0.85047913  0.25172281  0.16122764     0.18300
N906        N  0.89361552  0.29105119  0.08805346    -0.88400
H907        H  0.79558926  0.38850905  0.26545693     0.35700
H908        H  0.75260786  0.38735639  0.22457686     0.40800
H909        H  0.90712516  0.31493927  0.05938103     0.40400
H910        H  0.87509516  0.26436610  0.06726614     0.35300
O911        O  0.93343081  0.39089101  0.90138958    -0.75400
O912        O  0.88141087  0.43420842  0.94463534    -0.54300
C913        C  0.89420515  0.39968334  0.91167316     0.78300
O914        O  0.57665685  0.40022897  0.60618273    -0.60000
O915        O  0.62714080  0.44196858  0.55732693    -0.53000
C916        C  0.61550013  0.41102649  0.59448264     0.70300
O917        O  0.93378771  0.39483740  0.60391184    -0.74600
O918        O  0.88206001  0.43972287  0.56080058    -0.55100
C919        C  0.89478959  0.40547941  0.59392393     0.76400
O920        O  0.57510428  0.39467516  0.89756275    -0.59700
O921        O  0.62674014  0.44054422  0.93945648    -0.52800
C922        C  0.61417259  0.40551041  0.90701447     0.72900
Zr923      Zr  0.50422901  0.41962420  0.92359054     2.54700
O924        O  0.50610528  0.32504090  0.92338419    -0.80300
O925        O  0.50318778  0.42191408  0.82820659    -0.93700
Zr926      Zr  0.50495195  0.41931272  0.57638099     2.64700
O927        O  0.00681096  0.32643812  0.57283552    -0.98600
O928        O  0.50483698  0.41386587  0.67162742    -0.80700
O929        O  0.96268512  0.41783079  0.99969654    -0.84100
O930        O  0.54604156  0.41892507  0.49878356    -2.18800
O931        O  0.57525577  0.10143065  0.89894573    -0.67400
O932        O  0.62616222  0.05817566  0.94533268    -0.52000
C933        C  0.61414159  0.09224146  0.91190298     0.71300
O934        O  0.93491583  0.09994802  0.60190445    -0.60400
O935        O  0.88343303  0.05436649  0.55897523    -0.52300
C936        C  0.89613924  0.08818537  0.59280251     0.73100
O937        O  0.57611061  0.10123480  0.59544682    -0.71700
O938        O  0.62705163  0.05623780  0.55220864    -0.50400
C939        C  0.61503245  0.09181631  0.58401022     0.74500
O940        O  0.92991366  0.09939900  0.89738117    -0.67100
O941        O  0.88043169  0.04964156  0.94034958    -0.54300
C942        C  0.89126181  0.08547558  0.90761465     0.72900
Zr943      Zr  0.00288729  0.07400705  0.92095275     2.77500
O944        O  0.00161776  0.16863390  0.92112367    -0.97800
O945        O  0.00328191  0.07056305  0.82560071    -0.78600
Zr946      Zr  0.00439648  0.07341968  0.57434330     2.70100
O947        O  0.50386954  0.16751680  0.57750451    -0.79900
O948        O  0.00625663  0.07022684  0.66960065    -0.99000
Zr949      Zr  0.92088169  0.49499624  0.00037541     2.21500
Zr950      Zr  0.58680125  0.99631482  0.49865153     2.11100
O951        O  0.54501954  0.07361061  0.49726602    -2.47700
O952        O  0.96198480  0.07373432  0.99912462    -0.79700
O953        O  0.54532307  0.99805367  0.91945158    -0.71900
O954        O  0.96273692  0.49660073  0.57802934    -2.32800
O955        O  0.96179434  0.49644032  0.92133502    -2.29000
O956        O  0.54688925  0.99719026  0.57809314    -0.73600
H957        H  0.56421672  0.38884604  0.49862015     0.78400
H958        H  0.94513305  0.49684228  0.60906502     0.79400
H959        H  0.56265796  0.10437263  0.49694917     0.81700
H960        H  0.94362352  0.49588530  0.89094569     0.79300
H961        H  0.99596723  0.45644972  0.68257143     0.42300
H962        H  0.52909310  0.03902443  0.67721502     0.41300
H963        H  0.00277946  0.17713570  0.53491908     0.41000
H964        H  0.52320667  0.17861657  0.94698815     0.38900
H965        H  0.52452808  0.04313903  0.81715356     0.42000
H966        H  0.97516057  0.43886185  0.81780909     0.36800
H967        H  0.00006054  0.31536633  0.95616708     0.42900
H968        H  0.53698145  0.31704454  0.55906939     0.39300
H969        H  0.01097758  0.17878717  0.88544972     0.44300
H970        H  0.50199846  0.38493293  0.81770892     0.44800
H971        H  0.50180891  0.31148807  0.60219006     0.43100
H972        H  0.01739301  0.10467532  0.68013524     0.43500
C973        C  0.72703949  0.21181557  0.77638183    -0.02600
C974        C  0.72771622  0.27290807  0.78137188    -0.02600
C975        C  0.73030392  0.27864876  0.71936848    -0.02600
C976        C  0.72877985  0.21717742  0.71499090    -0.02600
C977        C  0.77629813  0.21094095  0.77909741    -0.02600
C978        C  0.77863925  0.21557299  0.71730823    -0.02600
C979        C  0.77990781  0.27696243  0.72218867    -0.02600
C980        C  0.77768182  0.27183893  0.78355865    -0.02600
C981        C  0.64895252  0.10672436  0.82916938    -0.26400
C982        C  0.64728383  0.11921148  0.88175884    -0.14500
C983        C  0.67702424  0.15517499  0.90230879     0.36100
C984        C  0.70463384  0.18155822  0.86740330    -0.25900
C985        C  0.70278112  0.17337478  0.81264495    -0.15100
C986        C  0.67716592  0.13122334  0.79517474     0.37200
N987        N  0.68080768  0.10931390  0.74450475    -0.89400
H988        H  0.62839420  0.07630338  0.81408084     0.18300
H989        H  0.72540530  0.21146910  0.88275710     0.18300
N990        N  0.67859228  0.16799838  0.95704452    -0.88400
H991        H  0.65061954  0.10861598  0.72762433     0.35700
H992        H  0.69059086  0.07072841  0.74845899     0.40800
H993        H  0.65609518  0.14694592  0.97851786     0.40400
H994        H  0.67051715  0.20717207  0.96069806     0.35300
C995        C  0.68456708  0.36405825  0.60341091    -0.26400
C996        C  0.64840963  0.38513565  0.62662927    -0.14500
C997        C  0.64216271  0.37784880  0.68049591     0.36100
C998        C  0.66936147  0.34514700  0.70843681    -0.25900
C999        C  0.70413286  0.31888222  0.68552817    -0.15100
C1000       C  0.71268700  0.33217847  0.63198349     0.37200
N1001       N  0.75026533  0.31601505  0.60571868    -0.89400
H1002       H  0.69068958  0.37130794  0.56220722     0.18300
H1003       H  0.65937185  0.33734934  0.74718954     0.18300
N1004       N  0.60723140  0.40266845  0.70670564    -0.88400
H1005       H  0.76715891  0.34933772  0.59457719     0.35700
H1006       H  0.74114009  0.29771415  0.57096272     0.40800
H1007       H  0.61236531  0.44279184  0.70455897     0.40400
H1008       H  0.60649782  0.39312478  0.74655344     0.35300
C1009       C  0.84231216  0.15537639  0.70591770    -0.26400
C1010       C  0.80784392  0.18082276  0.68235048    -0.14500
C1011       C  0.80562252  0.17737397  0.62609502     0.36100
C1012       C  0.83322933  0.14474838  0.59843078    -0.25900
C1013       C  0.86469295  0.11678121  0.62398341    -0.15100
C1014       C  0.86935310  0.12262122  0.67850602     0.37200
N1015       N  0.90142806  0.09590463  0.70759751    -0.89400
H1016       H  0.85072610  0.16240247  0.74579732     0.18300
H1017       H  0.83112600  0.14298157  0.55606918     0.18300
N1018       N  0.77771313  0.20820707  0.59507497    -0.88400
H1019       H  0.93121877  0.10970474  0.69617076     0.35700
H1020       H  0.89919369  0.05616569  0.69962310     0.40800
H1021       H  0.75677517  0.22692642  0.61948681     0.40400
H1022       H  0.75947373  0.18345662  0.57169731     0.35300
C1023       C  0.63216589  0.17137403  0.63272282    -0.26400
C1024       C  0.64688523  0.12541710  0.61011679    -0.14500
C1025       C  0.68927644  0.11086943  0.61916430     0.36100
C1026       C  0.71475749  0.14155781  0.65169927    -0.25900
C1027       C  0.69980094  0.18726078  0.67629323    -0.15100
C1028       C  0.65646954  0.19990774  0.66776687     0.37200
N1029       N  0.63349140  0.23625838  0.69855740    -0.89400
H1030       H  0.59955146  0.18327487  0.62711930     0.18300
H1031       H  0.74476589  0.12528829  0.66226330     0.18300
N1032       N  0.70678397  0.06366727  0.59912095    -0.88400
H1033       H  0.62374444  0.26647369  0.67405714     0.35700
H1034       H  0.65241491  0.25049358  0.72797801     0.40800
H1035       H  0.70591781  0.06496344  0.55821160     0.40400
H1036       H  0.68849962  0.03234346  0.61261894     0.35300
C1037       C  0.87846794  0.33995739  0.83808961    -0.26400
C1038       C  0.86313788  0.36726996  0.88165978    -0.14500
C1039       C  0.82053449  0.35913381  0.89669012     0.36100
C1040       C  0.79434785  0.32657009  0.86589380    -0.25900
C1041       C  0.80865093  0.30326827  0.81890109    -0.15100
C1042       C  0.85301194  0.30658789  0.80876839     0.37200
N1043       N  0.87494517  0.27370792  0.77271001    -0.89400
H1044       H  0.91164202  0.34271352  0.82715762     0.18300
H1045       H  0.76363477  0.31619769  0.88129216     0.18300
N1046       N  0.80425193  0.38218345  0.94381059    -0.88400
H1047       H  0.88885462  0.29704456  0.74376649     0.35700
H1048       H  0.85470951  0.24740699  0.75523825     0.40800
H1049       H  0.82017286  0.36537713  0.97544405     0.40400
H1050       H  0.77211202  0.37310862  0.94868857     0.35300
C1051       C  0.83254899  0.09005862  0.84177668    -0.26400
C1052       C  0.85681256  0.11424287  0.88087346    -0.14500
C1053       C  0.84728569  0.16591740  0.89418498     0.36100
C1054       C  0.81812927  0.19357366  0.86386088    -0.25900
C1055       C  0.79947582  0.17333290  0.81809009    -0.15100
C1056       C  0.80337015  0.11837628  0.81102680     0.37200
N1057       N  0.77962402  0.09014523  0.77249859    -0.89400
H1058       H  0.83737247  0.04919129  0.83371250     0.18300
H1059       H  0.80931474  0.23067177  0.87852164     0.18300
N1060       N  0.86616873  0.19179759  0.93837185    -0.88400
H1061       H  0.80091962  0.07213393  0.74699402     0.35700
H1062       H  0.76160586  0.11529408  0.75001377     0.40800
H1063       H  0.88659728  0.16756131  0.95909379     0.40400
H1064       H  0.84174544  0.20131691  0.96438181     0.35300
C1065       C  0.63383381  0.32139592  0.86920347    -0.26400
C1066       C  0.64550279  0.37277368  0.87913046    -0.14500
C1067       C  0.68351770  0.39187564  0.85745745     0.36100
C1068       C  0.70889442  0.35849946  0.82686793    -0.25900
C1069       C  0.69859511  0.30556612  0.81828004    -0.15100
C1070       C  0.65802011  0.28889264  0.83733701     0.37200
N1071       N  0.63738628  0.24268404  0.81962614    -0.89400
H1072       H  0.60367708  0.30675597  0.88374079     0.18300
H1073       H  0.73708427  0.37430069  0.80960059     0.18300
N1074       N  0.69566506  0.44522570  0.86500708    -0.88400
H1075       H  0.60991637  0.25368332  0.79967261     0.35700
H1076       H  0.62664829  0.22216874  0.85248100     0.40800
H1077       H  0.67316552  0.46840128  0.84623733     0.40400
H1078       H  0.72476128  0.45302003  0.84677051     0.35300
C1079       C  0.83452515  0.39820137  0.65655275    -0.26400
C1080       C  0.86302963  0.37417620  0.62228413    -0.14500
C1081       C  0.86577177  0.31974741  0.62230436     0.36100
C1082       C  0.84153116  0.29134095  0.65786853    -0.25900
C1083       C  0.81044263  0.31342526  0.69062186    -0.15100
C1084       C  0.80888988  0.36889062  0.69103836     0.37200
N1085       N  0.78429943  0.39745621  0.72782991    -0.89400
H1086       H  0.83366112  0.44025649  0.65843996     0.18300
H1087       H  0.85060737  0.25199506  0.66102837     0.18300
N1088       N  0.89352476  0.29151693  0.58767740    -0.88400
H1089       H  0.79547812  0.38904733  0.76522270     0.35700
H1090       H  0.75251192  0.38744794  0.72428397     0.40800
H1091       H  0.90729545  0.31559223  0.55935416     0.40400
H1092       H  0.87476970  0.26532156  0.56657425     0.35300
O1093       O  0.93400738  0.89006485  0.40146967    -0.75400
O1094       O  0.88198866  0.93330078  0.44480547    -0.54300
C1095       C  0.89480134  0.89883196  0.41178842     0.78300
O1096       O  0.57671017  0.90075213  0.10596678    -0.60000
O1097       O  0.62725828  0.94194647  0.05678958    -0.53000
C1098       C  0.61556437  0.91121504  0.09408956     0.70300
O1099       O  0.93323379  0.89595341  0.10424171    -0.74600
O1100       O  0.88164886  0.94035929  0.06038378    -0.55100
C1101       C  0.89424707  0.90670823  0.09417256     0.76400
O1102       O  0.57468315  0.89329930  0.39877908    -0.59700
O1103       O  0.62639481  0.94009153  0.43951102    -0.52800
C1104       C  0.61376704  0.90448693  0.40776248     0.72900
Zr1105     Zr  0.50392104  0.91981021  0.42373692     2.54700
O1106       O  0.50402621  0.82531615  0.42203220    -0.80300
O1107       O  0.50337205  0.92299965  0.32832635    -0.93700
Zr1108     Zr  0.50496845  0.91952925  0.07629522     2.64700
O1109       O  0.00646426  0.82519279  0.06713499    -0.98600
O1110       O  0.50358355  0.91354006  0.17146839    -0.80700
O1111       O  0.96314402  0.91840669  0.50117290    -0.84100
O1112       O  0.54615034  0.91870471  0.99873598    -2.18800
O1113       O  0.57512237  0.60282134  0.39999963    -0.67400
O1114       O  0.62591869  0.55836776  0.44544246    -0.52000
C1115       C  0.61399568  0.59298767  0.41249945     0.71300
O1116       O  0.93529327  0.59761461  0.10430318    -0.60400
O1117       O  0.88362618  0.55491535  0.05891403    -0.52300
C1118       C  0.89642924  0.58750257  0.09391451     0.73100
O1119       O  0.57560036  0.60033152  0.09699392    -0.71700
O1120       O  0.62658408  0.55615211  0.05289687    -0.50400
C1121       C  0.61452094  0.59117485  0.08528042     0.74500
O1122       O  0.92936836  0.59967946  0.39805865    -0.67100
O1123       O  0.87986869  0.54972716  0.44075643    -0.54300
C1124       C  0.89069759  0.58577447  0.40825839     0.72900
Zr1125     Zr  0.00246247  0.57377812  0.42078499     2.77500
O1126       O  0.00075773  0.66834285  0.41774241    -0.97800
O1127       O  0.00181899  0.56702665  0.32567435    -0.78600
Zr1128     Zr  0.00470492  0.57099231  0.07643836     2.70100
O1129       O  0.50540900  0.66695157  0.07569244    -0.79900
O1130       O  0.00711860  0.56442311  0.17159848    -0.99000
Zr1131     Zr  0.92086827  0.99509794  0.50008930     2.21500
Zr1132     Zr  0.58678900  0.49648428  0.99863242     2.11100
O1133       O  0.54499519  0.57374799  0.99763209    -2.47700
O1134       O  0.96167758  0.57400037  0.49902985    -0.79700
O1135       O  0.54502602  0.49885576  0.42017534    -0.71900
O1136       O  0.96305337  0.99552027  0.07767410    -2.32800
O1137       O  0.96177749  0.99535595  0.42099064    -2.29000
O1138       O  0.54657793  0.49668279  0.07778192    -0.73600
H1139       H  0.56432207  0.88861479  0.99871441     0.78400
H1140       H  0.94551849  0.99580920  0.10876413     0.79400
H1141       H  0.56253954  0.60460187  0.99765175     0.81700
H1142       H  0.94356827  0.99435640  0.39064526     0.79300
H1143       H  0.99516620  0.94772500  0.18348115     0.42300
H1144       H  0.52930378  0.54122982  0.17793362     0.41300
H1145       H  0.98640918  0.67565468  0.04814372     0.41000
H1146       H  0.52594519  0.67934236  0.44725092     0.38900
H1147       H  0.52536306  0.54840949  0.31779847     0.42000
H1148       H  0.97846023  0.94137568  0.31847960     0.36800
H1149       H  0.99369216  0.81560595  0.45878739     0.42900
H1150       H  0.53755275  0.81672213  0.06460960     0.39300
H1151       H  0.00871423  0.67729590  0.38124457     0.44300
H1152       H  0.50033657  0.88625833  0.31751048     0.44800
H1153       H  0.49884724  0.81208349  0.10295598     0.43100
H1154       H  0.01503067  0.59976273  0.18341667     0.43500
C1155       C  0.72696795  0.71207889  0.27648228    -0.02600
C1156       C  0.72753193  0.77314501  0.28133978    -0.02600
C1157       C  0.73009324  0.77877997  0.21933236    -0.02600
C1158       C  0.72869378  0.71728025  0.21506332    -0.02600
C1159       C  0.77622208  0.71135728  0.27918574    -0.02600
C1160       C  0.77856947  0.71586940  0.21737097    -0.02600
C1161       C  0.77969164  0.77730379  0.22214909    -0.02600
C1162       C  0.77752338  0.77222889  0.28352056    -0.02600
C1163       C  0.64973097  0.60628682  0.33008295    -0.26400
C1164       C  0.64725699  0.61982013  0.38235721    -0.14500
C1165       C  0.67623207  0.65685233  0.40262866     0.36100
C1166       C  0.70406520  0.68288339  0.36770776    -0.25900
C1167       C  0.70277187  0.67382501  0.31305855    -0.15100
C1168       C  0.67772607  0.63101899  0.29594614     0.37200
N1169       N  0.68149384  0.60899211  0.24535905    -0.89400
H1170       H  0.62971310  0.57520192  0.31526865     0.18300
H1171       H  0.72440167  0.71334642  0.38285038     0.18300
N1172       N  0.67675674  0.67107775  0.45703222    -0.88400
H1173       H  0.65129142  0.60793249  0.22853113     0.35700
H1174       H  0.69156784  0.57053110  0.24940356     0.40800
H1175       H  0.65428532  0.64997286  0.47851129     0.40400
H1176       H  0.66798326  0.71012099  0.45947418     0.35300
C1177       C  0.68449804  0.86390826  0.10308977    -0.26400
C1178       C  0.64836617  0.88514160  0.12624474    -0.14500
C1179       C  0.64195811  0.87776239  0.18007966     0.36100
C1180       C  0.66917641  0.84520965  0.20815531    -0.25900
C1181       C  0.70395648  0.81890277  0.18534499    -0.15100
C1182       C  0.71253344  0.83199066  0.13175732     0.37200
N1183       N  0.75008242  0.81559975  0.10557108    -0.89400
H1184       H  0.69066948  0.87107636  0.06188192     0.18300
H1185       H  0.65923587  0.83754832  0.24697329     0.18300
N1186       N  0.60681764  0.90231725  0.20612046    -0.88400
H1187       H  0.76707851  0.84882839  0.09436813     0.35700
H1188       H  0.74094368  0.79720486  0.07087227     0.40800
H1189       H  0.61178256  0.94247523  0.20408680     0.40400
H1190       H  0.60592296  0.89266690  0.24593524     0.35300
C1191       C  0.84261428  0.65617598  0.20638507    -0.26400
C1192       C  0.80795091  0.68107747  0.18266867    -0.14500
C1193       C  0.80562022  0.67699037  0.12648667     0.36100
C1194       C  0.83334577  0.64423014  0.09908483    -0.25900
C1195       C  0.86504115  0.61672111  0.12483047    -0.15100
C1196       C  0.86973934  0.62326008  0.17930023     0.37200
N1197       N  0.90172523  0.59680583  0.20879353    -0.89400
H1198       H  0.85094364  0.66345685  0.24625395     0.18300
H1199       H  0.83111969  0.64197684  0.05675918     0.18300
N1200       N  0.77754389  0.70740754  0.09525414    -0.88400
H1201       H  0.93158486  0.61056784  0.19757354     0.35700
H1202       H  0.89953505  0.55699470  0.20116995     0.40800
H1203       H  0.75667011  0.72643827  0.11951402     0.40400
H1204       H  0.75926768  0.68235387  0.07225451     0.35300
C1205       C  0.63188820  0.67097768  0.13332697    -0.26400
C1206       C  0.64640842  0.62466515  0.11137895    -0.14500
C1207       C  0.68869970  0.60987785  0.12072748     0.36100
C1208       C  0.71449863  0.64115086  0.15235674    -0.25900
C1209       C  0.69964678  0.68711534  0.17657955    -0.15100
C1210       C  0.65629208  0.69972509  0.16806466     0.37200
N1211       N  0.63338825  0.73636125  0.19854962    -0.89400
H1212       H  0.59932141  0.68298551  0.12752247     0.18300
H1213       H  0.74461965  0.62509604  0.16279118     0.18300
N1214       N  0.70564764  0.56173325  0.10227847    -0.88400
H1215       H  0.62364395  0.76637906  0.17380243     0.35700
H1216       H  0.65240952  0.75081338  0.22773006     0.40800
H1217       H  0.70505483  0.56180175  0.06135207     0.40400
H1218       H  0.68679960  0.53122823  0.11651768     0.35300
C1219       C  0.87888639  0.83912320  0.33820456    -0.26400
C1220       C  0.86368236  0.86658280  0.38173026    -0.14500
C1221       C  0.82095225  0.85915282  0.39649777     0.36100
C1222       C  0.79453729  0.82698934  0.36561370    -0.25900
C1223       C  0.80874188  0.80339461  0.31875507    -0.15100
C1224       C  0.85315462  0.80631665  0.30859889     0.37200
N1225       N  0.87483113  0.77380182  0.27197360    -0.89400
H1226       H  0.91210360  0.84149722  0.32738867     0.18300
H1227       H  0.76370199  0.81709404  0.38090826     0.18300
N1228       N  0.80472382  0.88260379  0.44343852    -0.88400
H1229       H  0.88876319  0.79747337  0.24331599     0.35700
H1230       H  0.85436785  0.74810995  0.25408968     0.40800
H1231       H  0.82027999  0.86557459  0.47523023     0.40400
H1232       H  0.77245525  0.87415069  0.44809085     0.35300
C1233       C  0.83251046  0.59060413  0.34185759    -0.26400
C1234       C  0.85624516  0.61458685  0.38152550    -0.14500
C1235       C  0.84621819  0.66602086  0.39527806     0.36100
C1236       C  0.81743391  0.69389092  0.36451892    -0.25900
C1237       C  0.79930589  0.67380830  0.31832219    -0.15100
C1238       C  0.80341600  0.61891965  0.31104805     0.37200
N1239       N  0.77991290  0.59072197  0.27228983    -0.89400
H1240       H  0.83761169  0.54984988  0.33349402     0.18300
H1241       H  0.80838716  0.73094725  0.37916047     0.18300
N1242       N  0.86414513  0.69134064  0.44038358    -0.88400
H1243       H  0.80134050  0.57287459  0.24684006     0.35700
H1244       H  0.76190226  0.61587277  0.24982916     0.40800
H1245       H  0.88420550  0.66682854  0.46133912     0.40400
H1246       H  0.83918104  0.70035101  0.46579520     0.35300
C1247       C  0.63370627  0.82048346  0.36990519    -0.26400
C1248       C  0.64513847  0.87192512  0.37982316    -0.14500
C1249       C  0.68281797  0.89150110  0.35766486     0.36100
C1250       C  0.70832500  0.85839274  0.32700811    -0.25900
C1251       C  0.69821846  0.80547556  0.31825757    -0.15100
C1252       C  0.65770427  0.78849866  0.33731317     0.37200
N1253       N  0.63682990  0.74277298  0.31872496    -0.89400
H1254       H  0.60371018  0.80556242  0.38466354     0.18300
H1255       H  0.73642386  0.87441495  0.30975644     0.18300
N1256       N  0.69444703  0.94509089  0.36473263    -0.88400
H1257       H  0.60945124  0.75442836  0.29895684     0.35700
H1258       H  0.62584768  0.72175215  0.35112251     0.40800
H1259       H  0.67154812  0.96776861  0.34607958     0.40400
H1260       H  0.72330253  0.95325710  0.34607670     0.35300
C1261       C  0.83412062  0.89931047  0.15734893    -0.26400
C1262       C  0.86242079  0.87554899  0.12261384    -0.14500
C1263       C  0.86485241  0.82112593  0.12182077     0.36100
C1264       C  0.84076830  0.79237039  0.15725158    -0.25900
C1265       C  0.80999178  0.81415142  0.19062114    -0.15100
C1266       C  0.80844946  0.86964725  0.19155500     0.37200
N1267       N  0.78372944  0.89786265  0.22848534    -0.89400
H1268       H  0.83335081  0.94134491  0.15969674     0.18300
H1269       H  0.84949591  0.75287103  0.15948282     0.18300
N1270       N  0.89207470  0.79319753  0.08631051    -0.88400
H1271       H  0.79486535  0.88923244  0.26584164     0.35700
H1272       H  0.75197308  0.88775359  0.22473088     0.40800
H1273       H  0.90581423  0.81756611  0.05821680     0.40400
H1274       H  0.87292100  0.76760315  0.06500995     0.35300
O1275       O  0.93367657  0.89051611  0.90140266    -0.75400
O1276       O  0.88167146  0.93380142  0.94469584    -0.54300
C1277       C  0.89449180  0.89919803  0.91181866     0.78300
O1278       O  0.57660503  0.90118769  0.60805286    -0.60000
O1279       O  0.62707411  0.94070841  0.55742726    -0.53000
C1280       C  0.61544387  0.91084959  0.59544159     0.70300
O1281       O  0.93395877  0.89525270  0.60468178    -0.74600
O1282       O  0.88220529  0.93911071  0.56054661    -0.55100
C1283       C  0.89495247  0.90537417  0.59419841     0.76400
O1284       O  0.57492538  0.89507964  0.89699236    -0.59700
O1285       O  0.62653201  0.94120352  0.93864907    -0.52800
C1286       C  0.61398541  0.90593299  0.90646447     0.72900
Zr1287     Zr  0.50408765  0.92105415  0.92217026     2.54700
O1288       O  0.50656520  0.82670657  0.91680947    -0.80300
O1289       O  0.50332730  0.92727645  0.82694285    -0.93700
Zr1290     Zr  0.50503752  0.92054690  0.57818799     2.64700
O1291       O  0.00613617  0.82648769  0.57487098    -0.98600
O1292       O  0.50335854  0.91802643  0.67357124    -0.80700
O1293       O  0.96272125  0.91829635  0.99945578    -0.84100
O1294       O  0.54592770  0.91819525  0.50041399    -2.18800
O1295       O  0.57612883  0.60028824  0.89923318    -0.67400
O1296       O  0.62673470  0.55698066  0.94603978    -0.52000
C1297       C  0.61495077  0.59101508  0.91245926     0.71300
O1298       O  0.93473244  0.59920728  0.60244834    -0.60400
O1299       O  0.88297661  0.55553605  0.55812756    -0.52300
C1300       C  0.89586351  0.58858735  0.59258400     0.73100
O1301       O  0.57546723  0.59987758  0.59829365    -0.71700
O1302       O  0.62643751  0.55672562  0.55310377    -0.50400
C1303       C  0.61437220  0.59121890  0.58610900     0.74500
O1304       O  0.92955174  0.59874328  0.89812104    -0.67100
O1305       O  0.88010979  0.54856359  0.94063152    -0.54300
C1306       C  0.89093404  0.58453588  0.90806965     0.72900
Zr1307     Zr  0.00255419  0.57401305  0.92192565     2.77500
O1308       O  0.00097201  0.66867400  0.92273390    -0.97800
O1309       O  0.00164671  0.56976647  0.82666875    -0.78600
Zr1310     Zr  0.00448882  0.57303663  0.57534061     2.70100
O1311       O  0.50453910  0.66638701  0.57842347    -0.79900
O1312       O  0.00711690  0.56771672  0.67053969    -0.99000
Zr1313     Zr  0.92093282  0.99543433  0.99985851     2.21500
Zr1314     Zr  0.58663081  0.49727029  0.49839049     2.11100
O1315       O  0.54463569  0.57439884  0.49883277    -2.47700
O1316       O  0.96179730  0.57338371  0.00022866    -0.79700
O1317       O  0.54550503  0.49666679  0.92026328    -0.71900
O1318       O  0.96293981  0.99675409  0.57787218    -2.32800
O1319       O  0.96174494  0.99667028  0.92075330    -2.29000
O1320       O  0.54652005  0.49616107  0.57765599    -0.73600
H1321       H  0.56396293  0.88798850  0.50068000     0.78400
H1322       H  0.94530253  0.99724018  0.60886839     0.79400
H1323       H  0.56217370  0.60525240  0.49916843     0.81700
H1324       H  0.94341469  0.99605322  0.89051847     0.79300
H1325       H  0.98623952  0.95182684  0.68288261     0.42300
H1326       H  0.53169982  0.54357521  0.67925294     0.41300
H1327       H  0.00117382  0.67803903  0.53998624     0.41000
H1328       H  0.52302139  0.67806995  0.94669084     0.38900
H1329       H  0.52487008  0.53995286  0.81782628     0.42000
H1330       H  0.97416306  0.94316475  0.81844928     0.36800
H1331       H  0.99491336  0.81574139  0.95456921     0.42900
H1332       H  0.53650294  0.81797568  0.56137084     0.39300
H1333       H  0.01150372  0.67919057  0.88766387     0.44300
H1334       H  0.50256873  0.89074617  0.81491576     0.44800
H1335       H  0.50661096  0.81447752  0.61035705     0.43100
H1336       H  0.01348578  0.60365420  0.68192710     0.43500
C1337       C  0.72733412  0.71171088  0.77716983    -0.02600
C1338       C  0.72802912  0.77281306  0.78210804    -0.02600
C1339       C  0.73040603  0.77855035  0.72007766    -0.02600
C1340       C  0.72883217  0.71708250  0.71576589    -0.02600
C1341       C  0.77660586  0.71084721  0.77956026    -0.02600
C1342       C  0.77866997  0.71548785  0.71777033    -0.02600
C1343       C  0.78001954  0.77683091  0.72258466    -0.02600
C1344       C  0.77801835  0.77170985  0.78393068    -0.02600
C1345       C  0.65006616  0.60556965  0.82998980    -0.26400
C1346       C  0.64827587  0.61795321  0.88255109    -0.14500
C1347       C  0.67780766  0.65414220  0.90317266     0.36100
C1348       C  0.70517841  0.68099984  0.86828564    -0.25900
C1349       C  0.70329243  0.67300301  0.81347959    -0.15100
C1350       C  0.67797987  0.63054856  0.79600960     0.37200
N1351       N  0.68158247  0.60880017  0.74529452    -0.89400
H1352       H  0.62971954  0.57496086  0.81484444     0.18300
H1353       H  0.72578027  0.71105915  0.88369881     0.18300
N1354       N  0.67941538  0.66664946  0.95797911    -0.88400
H1355       H  0.65130839  0.60770121  0.72866639     0.35700
H1356       H  0.69172685  0.57034296  0.74907455     0.40800
H1357       H  0.65716750  0.64516224  0.97941511     0.40400
H1358       H  0.67101797  0.70568865  0.96191893     0.35300
C1359       C  0.68447709  0.86379654  0.60417024    -0.26400
C1360       C  0.64838113  0.88492490  0.62747873    -0.14500
C1361       C  0.64239010  0.87800183  0.68142083     0.36100
C1362       C  0.66948874  0.84511927  0.70926580    -0.25900
C1363       C  0.70418107  0.81875593  0.68628205    -0.15100
C1364       C  0.71272003  0.83211130  0.63274442     0.37200
N1365       N  0.75043224  0.81633290  0.60651821    -0.89400
H1366       H  0.69053586  0.87099190  0.56294349     0.18300
H1367       H  0.65956129  0.83746239  0.74806279     0.18300
N1368       N  0.60792783  0.90356008  0.70785004    -0.88400
H1369       H  0.76712034  0.84983866  0.59546372     0.35700
H1370       H  0.74146587  0.79807421  0.57168188     0.40800
H1371       H  0.61348189  0.94358651  0.70533881     0.40400
H1372       H  0.60742777  0.89433828  0.74777688     0.35300
C1373       C  0.84226667  0.65561232  0.70595071    -0.26400
C1374       C  0.80770467  0.68096349  0.68257869    -0.14500
C1375       C  0.80528448  0.67772169  0.62634082     0.36100
C1376       C  0.83289523  0.64527586  0.59845311    -0.25900
C1377       C  0.86459332  0.61746571  0.62380724    -0.15100
C1378       C  0.86943750  0.62329007  0.67831867     0.37200
N1379       N  0.90181785  0.59695105  0.70723816    -0.89400
H1380       H  0.85067451  0.66241606  0.74587101     0.18300
H1381       H  0.83057912  0.64349090  0.55611336     0.18300
N1382       N  0.77707302  0.70843795  0.59559994    -0.88400
H1383       H  0.93146150  0.61135646  0.69596049     0.35700
H1384       H  0.90002254  0.55721601  0.69910355     0.40800
H1385       H  0.75616406  0.72702673  0.62016578     0.40400
H1386       H  0.75881923  0.68362138  0.57231176     0.35300
C1387       C  0.63144241  0.67042709  0.63547484    -0.26400
C1388       C  0.64619011  0.62471006  0.61240636    -0.14500
C1389       C  0.68876985  0.61051993  0.62062630     0.36100
C1390       C  0.71453156  0.64151999  0.65250948    -0.25900
C1391       C  0.69963166  0.68710098  0.67741045    -0.15100
C1392       C  0.65611081  0.69935185  0.66981010     0.37200
N1393       N  0.63345413  0.73590300  0.70072334    -0.89400
H1394       H  0.59867543  0.68199322  0.63055871     0.18300
H1395       H  0.74472243  0.62544016  0.66251612     0.18300
N1396       N  0.70618473  0.56326703  0.60057474    -0.88400
H1397       H  0.62331799  0.76585815  0.67614163     0.35700
H1398       H  0.65277433  0.75059891  0.72949199     0.40800
H1399       H  0.70504642  0.56439095  0.55967790     0.40400
H1400       H  0.68800094  0.53197963  0.61437511     0.35300
C1401       C  0.87893313  0.83937957  0.83833361    -0.26400
C1402       C  0.86353533  0.86666489  0.88190019    -0.14500
C1403       C  0.82090743  0.85869082  0.89679802     0.36100
C1404       C  0.79477665  0.82618056  0.86600251    -0.25900
C1405       C  0.80908882  0.80301796  0.81901248    -0.15100
C1406       C  0.85345243  0.80627346  0.80881351     0.37200
N1407       N  0.87534731  0.77362325  0.77250647    -0.89400
H1408       H  0.91212256  0.84207793  0.82745024     0.18300
H1409       H  0.76406432  0.81578195  0.88136778     0.18300
N1410       N  0.80448651  0.88199078  0.94370475    -0.88400
H1411       H  0.88924274  0.79713850  0.74369247     0.35700
H1412       H  0.85508150  0.74740263  0.75497671     0.40800
H1413       H  0.82021728  0.86524243  0.97551160     0.40400
H1414       H  0.77229606  0.87308741  0.94839414     0.35300
C1415       C  0.83209586  0.58947502  0.84248357    -0.26400
C1416       C  0.85659236  0.61346125  0.88144830    -0.14500
C1417       C  0.84782619  0.66540902  0.89436464     0.36100
C1418       C  0.81890803  0.69336442  0.86400885    -0.25900
C1419       C  0.79986744  0.67317919  0.81843566    -0.15100
C1420       C  0.80337511  0.61815909  0.81145111     0.37200
N1421       N  0.77974526  0.59018498  0.77264244    -0.89400
H1422       H  0.83652413  0.54850642  0.83457854     0.18300
H1423       H  0.81061161  0.73065344  0.87856572     0.18300
N1424       N  0.86729680  0.69129403  0.93818034    -0.88400
H1425       H  0.80114033  0.57201216  0.74738023     0.35700
H1426       H  0.76210454  0.61552085  0.74993449     0.40800
H1427       H  0.88738766  0.66680474  0.95910726     0.40400
H1428       H  0.84314117  0.70169106  0.96421639     0.35300
C1429       C  0.63380203  0.82159309  0.86926598    -0.26400
C1430       C  0.64538486  0.87303010  0.87893802    -0.14500
C1431       C  0.68355097  0.89200857  0.85758695     0.36100
C1432       C  0.70914269  0.85848201  0.82744181    -0.25900
C1433       C  0.69888100  0.80549869  0.81898498    -0.15100
C1434       C  0.65825667  0.78883749  0.83798250     0.37200
N1435       N  0.63792725  0.74215117  0.82102290    -0.89400
H1436       H  0.60358512  0.80701854  0.88368168     0.18300
H1437       H  0.73740845  0.87424122  0.81028907     0.18300
N1438       N  0.69560654  0.94541705  0.86495646    -0.88400
H1439       H  0.61028422  0.75251731  0.80108599     0.35700
H1440       H  0.62748232  0.72197352  0.85423260     0.40800
H1441       H  0.67321967  0.96846108  0.84581471     0.40400
H1442       H  0.72482144  0.95314331  0.84698989     0.35300
C1443       C  0.83453206  0.89796515  0.65659438    -0.26400
C1444       C  0.86324660  0.87396766  0.62257023    -0.14500
C1445       C  0.86630638  0.81955064  0.62298573     0.36100
C1446       C  0.84183053  0.79113165  0.65831935    -0.25900
C1447       C  0.81060248  0.81321594  0.69091783    -0.15100
C1448       C  0.80900576  0.86867093  0.69122879     0.37200
N1449       N  0.78448166  0.89724980  0.72808392    -0.89400
H1450       H  0.83349772  0.94002118  0.65828111     0.18300
H1451       H  0.85095833  0.75180271  0.66158901     0.18300
N1452       N  0.89469498  0.79135507  0.58911046    -0.88400
H1453       H  0.79574419  0.88887319  0.76544768     0.35700
H1454       H  0.75269237  0.88720977  0.72470038     0.40800
H1455       H  0.90856598  0.81532392  0.56077281     0.40400
H1456       H  0.87642985  0.76468840  0.56795817     0.35300
loop_ 
_geom_bond_atom_site_label_1 
_geom_bond_atom_site_label_2 
_geom_bond_distance 
_geom_bond_site_symmetry_2 
_ccdc_geom_bond_type 
O1            C3   1.285       .  A
O1         Zr741   2.417       .  S
O2            C3   1.291       .  A
O2          Zr39   2.455       .  S
C3          C128   1.498       .  S
O4            C6   1.287       .  A
O4          Zr16   2.434       .  S
O5            C6   1.288       .  A
O5         Zr404   2.438   1_554  S
C6           C86   1.483       .  S
O7            C9   1.288       .  A
O7         Zr744   2.433       .  S
O8            C9   1.286       .  A
O8         Zr221   2.426       .  S
C9          C170   1.469       .  S
O10          C12   1.285       .  A
O10         Zr13   2.419       .  S
O11          C12   1.289       .  A
O11        Zr586   2.445       .  S
C12         C156   1.483       .  S
Zr13        O729   2.417   1_455  S
Zr13         O14   2.434       .  S
Zr13         O15   2.436       .  S
Zr13        O747   2.368   1_455  S
Zr13        O202   2.367       .  S
Zr13        O407   2.368       .  S
Zr13        O773   2.367   1_455  S
O14         H785   0.990   1_455  S
O15          H60   0.990   1_455  S
O15         H784   0.990   1_455  S
Zr16        O735   2.431   1_455  S
Zr16         O18   2.435       .  S
Zr16        O745   2.437       .  S
Zr16         O20   2.365   1_554  S
Zr16        O929   2.369   1_454  S
Zr16        O772   2.366   1_455  S
Zr16        O410   2.369       .  S
O17        Zr744   2.438       .  S
O17         H786   0.990       .  S
O17         H789   0.990       .  S
O18         H779   0.990       .  S
O19         Zr39   2.389       .  S
O19        Zr741   2.367       .  S
O19        Zr926   2.370       .  S
O20        Zr195   2.365       .  S
O20        Zr404   2.383       .  S
O20          H47   0.966       .  S
O21          C23   1.295       .  A
O21        Zr761   2.469       .  S
O22          C23   1.281       .  A
O22        Zr222   2.399   1_545  S
C23          C72   1.466       .  S
O24          C26   1.280       .  A
O24         Zr36   2.403       .  S
O25          C26   1.291       .  A
O25        Zr585   2.451   1_545  S
C26         C103   1.473       .  S
O27          C29   1.285       .  A
O27        Zr764   2.416       .  S
O28          C29   1.284       .  A
O28         Zr40   2.425   1_544  S
C29         C114   1.485       .  S
O30          C32   1.295       .  A
O30         Zr33   2.474       .  S
O31          C32   1.287       .  A
O31        Zr403   2.431   1_545  S
C32         C142   1.486       .  S
Zr33        O749   2.467       .  S
Zr33         O34   2.435       .  S
Zr33         O35   2.436       .  S
Zr33         O42   2.372       .  S
Zr33        O951   2.366       .  S
Zr33        O409   2.371   1_545  S
Zr33        O771   2.381   1_545  S
O34          H59   0.990       .  S
O34         H782   0.990       .  S
O35         H783   0.990       .  S
Zr36        O755   2.415       .  S
Zr36         O38   2.435       .  S
Zr36        O765   2.434       .  S
Zr36        O224   2.373   1_554  S
Zr36        O769   2.351   1_554  S
Zr36        O774   2.363   1_545  S
Zr36        O408   2.361   1_545  S
O37        Zr764   2.433       .  S
O37         H781   0.990   1_455  S
O38          H62   0.990       .  S
O38         H780   0.990       .  S
Zr39        O190   2.427       .  S
Zr39        O571   2.448       .  S
Zr39        O395   2.433       .  S
Zr39         O45   2.391       .  S
Zr39        O406   2.389       .  S
Zr39        O226   2.395       .  S
Zr40        O369   2.434   1_556  S
Zr40        O557   2.442       .  S
Zr40        O204   2.403   1_565  S
Zr40         O41   2.392   1_565  S
Zr40         O46   2.383   1_556  S
Zr40        O384   2.384       .  S
Zr40        O225   2.394       .  S
O41        Zr943   2.367       .  S
O41        Zr764   2.352   1_556  S
O41          H49   0.965       .  S
O42        Zr218   2.373       .  S
O42        Zr403   2.390   1_545  S
O43        Zr377   2.367       .  S
O43        Zr761   2.382   1_565  S
O43        Zr222   2.394       .  S
O44        Zr744   2.368       .  S
O44        Zr400   2.360       .  S
O44        Zr221   2.390       .  S
O44          H48   0.966       .  S
O45        Zr741   2.368       .  S
O45        Zr397   2.373       .  S
O45          H50   0.966       .  S
O46        Zr380   2.369       .  S
O46        Zr764   2.362   1_565  S
H51         O746   0.990       .  S
H52         O766   0.990       .  S
H53         O765   0.990       .  S
H54         O762   0.990       .  S
H55         O763   0.990       .  S
H56         O743   0.990       .  S
H57         O742   0.990       .  S
H58         O745   0.990       .  S
H61         O745   0.990       .  S
C63          C64   1.578       .  S
C63          C66   1.573       .  S
C63          C67   1.556       .  S
C63          C75   1.550       .  S
C64          C65   1.591       .  S
C64          C70   1.578       .  S
C64         C159   1.565       .  S
C65          C66   1.586       .  S
C65          C69   1.567       .  S
C65          C89   1.583       .  S
C66          C68   1.574       .  S
C66         C117   1.551       .  S
C67          C68   1.583       .  S
C67          C70   1.572       .  S
C67         C145   1.572       .  S
C68          C69   1.586       .  S
C68         C100   1.566       .  S
C69          C70   1.573       .  S
C69         C173   1.563       .  S
C70         C131   1.555       .  S
C71          C72   1.382       .  A
C71          C76   1.388       .  A
C71          H78   1.086       .  S
C72          C73   1.417       .  A
C73          C74   1.413       .  A
C73          N80   1.438       .  S
C74          C75   1.415       .  A
C74          H79   1.083       .  S
C75          C76   1.424       .  A
C76          N77   1.418       .  S
N77          H81   1.046       .  S
N77          H82   1.046       .  S
N80          H83   1.043       .  S
N80          H84   1.046       .  S
C85          C86   1.396       .  A
C85          C90   1.413       .  A
C85          H92   1.084       .  S
C86          C87   1.400       .  A
C87          C88   1.400       .  A
C87          N94   1.441       .  S
C88          C89   1.417       .  A
C88          H93   1.056       .  S
C89          C90   1.432       .  A
C90          N91   1.424       .  S
N91          H95   1.045       .  S
N91          H96   1.046       .  S
N94          H97   1.046       .  S
N94          H98   1.046       .  S
C99         C100   1.407       .  A
C99         C104   1.391       .  A
C99         H106   1.069       .  S
C100        C101   1.441       .  A
C101        C102   1.404       .  A
C101        N108   1.428       .  S
C102        C103   1.392       .  A
C102        H107   1.085       .  S
C103        C104   1.409       .  A
C104        N105   1.434       .  S
N105        H109   1.043       .  S
N105        H110   1.046       .  S
N108        H111   1.029       .  S
N108        H112   1.046       .  S
C113        C114   1.399       .  A
C113        C118   1.390       .  A
C113        H120   1.084       .  S
C114        C115   1.410       .  A
C115        C116   1.400       .  A
C115        N122   1.432       .  S
C116        C117   1.417       .  A
C116        H121   1.072       .  S
C117        C118   1.424       .  A
C118        N119   1.424       .  S
N119        H123   1.045       .  S
N119        H124   1.028       .  S
N122        H125   1.045       .  S
N122        H126   1.045       .  S
C127        C128   1.404       .  A
C127        C132   1.394       .  A
C127        H134   1.084       .  S
C128        C129   1.410       .  A
C129        C130   1.415       .  A
C129        N136   1.437       .  S
C130        C131   1.416       .  A
C130        H135   1.076       .  S
C131        C132   1.424       .  A
C132        N133   1.431       .  S
N133        H137   1.045       .  S
N133        H138   1.031       .  S
N136        H139   1.046       .  S
N136        H140   1.046       .  S
C141        C142   1.404       .  A
C141        C146   1.414       .  A
C141        H148   1.084       .  S
C142        C143   1.408       .  A
C143        C144   1.401       .  A
C143        N150   1.441       .  S
C144        C145   1.411       .  A
C144        H149   1.065       .  S
C145        C146   1.432       .  A
C146        N147   1.435       .  S
N147        H151   1.045       .  S
N147        H152   1.037       .  S
N150        H153   1.043       .  S
N150        H154   1.046       .  S
C155        C156   1.395       .  A
C155        C160   1.397       .  A
C155        H162   1.085       .  S
C156        C157   1.404       .  A
C157        C158   1.413       .  A
C157        N164   1.437       .  S
C158        C159   1.417       .  A
C158        H163   1.069       .  S
C159        C160   1.431       .  A
C160        N161   1.428       .  S
N161        H165   1.046       .  S
N161        H166   1.044       .  S
N164        H167   1.046       .  S
N164        H168   1.046       .  S
C169        C170   1.400       .  A
C169        C174   1.409       .  A
C169        H176   1.084       .  S
C170        C171   1.404       .  A
C171        C172   1.389       .  A
C171        N178   1.443       .  S
C172        C173   1.410       .  A
C172        H177   1.056       .  S
C173        C174   1.429       .  A
C174        N175   1.425       .  S
N175        H179   1.041       .  S
N175        H180   1.038       .  S
N178        H181   1.043       .  S
N178        H182   1.046       .  S
O183        C185   1.285       .  A
O183       Zr923   2.419       .  S
O184        C185   1.291       .  A
O184       Zr221   2.454   1_556  S
C185        C310   1.497       .  S
O186        C188   1.289       .  A
O186       Zr198   2.440       .  S
O187        C188   1.288       .  A
O187       Zr586   2.437       .  S
C188        C268   1.485       .  S
O189        C191   1.288       .  A
O189       Zr926   2.433       .  S
O190        C191   1.286       .  A
C191        C352   1.469       .  S
O192        C194   1.285       .  A
O192       Zr195   2.421       .  S
O193        C194   1.288       .  A
O193       Zr404   2.441       .  S
C194        C338   1.483       .  S
Zr195       O911   2.418   1_455  S
Zr195       O196   2.434       .  S
Zr195       O197   2.436       .  S
Zr195       O929   2.369   1_455  S
Zr195       O589   2.367       .  S
Zr195       O955   2.367   1_455  S
O196        H967   0.990       .  S
O197        H966   0.990   1_455  S
O197        H242   0.990       .  S
Zr198       O917   2.431   1_455  S
Zr198       O927   2.435       .  S
Zr198       O200   2.435       .  S
Zr198       O202   2.366       .  S
Zr198       O747   2.371   1_455  S
Zr198       O954   2.366   1_455  S
Zr198       O592   2.367       .  S
O199       Zr926   2.437       .  S
O199        H968   0.990       .  S
O199        H971   0.990       .  S
O200        H961   0.990   1_455  S
O201       Zr923   2.367   1_554  S
O201       Zr744   2.370       .  S
O201       Zr221   2.390       .  S
O202       Zr586   2.383       .  S
O202        H229   0.966       .  S
O203        C205   1.294       .  A
O203       Zr943   2.464       .  S
O204        C205   1.281       .  A
C205        C254   1.466       .  S
O206        C208   1.280       .  A
O206       Zr218   2.404       .  S
O207        C208   1.291       .  A
O207       Zr403   2.449   1_545  S
C208        C285   1.472       .  S
O209        C211   1.285       .  A
O209       Zr946   2.415       .  S
O210        C211   1.284       .  A
O210       Zr222   2.422   1_545  S
C211        C296   1.482       .  S
O212        C214   1.294       .  A
O212       Zr215   2.469       .  S
O213        C214   1.287       .  A
O213       Zr585   2.431   1_546  S
C214        C324   1.484       .  S
Zr215       O931   2.464       .  S
Zr215       O216   2.436       .  S
Zr215       O217   2.435       .  S
Zr215       O769   2.366       .  S
Zr215       O224   2.373       .  S
Zr215       O591   2.370   1_545  S
Zr215       O953   2.380   1_545  S
O216        H964   0.990       .  S
O216        H241   0.990       .  S
O217        H965   0.990       .  S
Zr218       O937   2.418       .  S
Zr218       O947   2.437       .  S
Zr218       O220   2.435       .  S
Zr218       O951   2.353       .  S
Zr218       O956   2.364   1_545  S
Zr218       O590   2.361   1_545  S
O219       Zr946   2.435       .  S
O219        H963   0.990       .  S
O220        H962   0.990       .  S
O220        H244   0.990       .  S
Zr221       O389   2.453       .  S
Zr221       O577   2.429   1_554  S
Zr221       O588   2.388   1_554  S
Zr221       O227   2.392   1_554  S
Zr222       O551   2.438       .  S
Zr222       O375   2.444       .  S
Zr222       O566   2.382       .  S
Zr222       O223   2.394   1_565  S
Zr222       O228   2.382       .  S
O223       Zr761   2.367       .  S
O223       Zr946   2.350       .  S
O223        H231   0.965       .  S
O224       Zr585   2.387   1_546  S
O225       Zr559   2.367       .  S
O225       Zr943   2.381   1_565  S
O226       Zr926   2.369       .  S
O226       Zr582   2.361       .  S
O226        H230   0.966       .  S
O227       Zr923   2.367       .  S
O227       Zr579   2.371       .  S
O227        H232   0.966       .  S
O228       Zr562   2.367       .  S
O228       Zr946   2.363   1_565  S
H233        O928   0.990       .  S
H234        O948   0.990       .  S
H235        O947   0.990       .  S
H236        O944   0.990       .  S
H237        O945   0.990   1_655  S
H238        O925   0.990       .  S
H239        O924   0.990       .  S
H240        O927   0.990       .  S
H243        O927   0.990       .  S
C245        C246   1.577       .  S
C245        C248   1.573       .  S
C245        C249   1.555       .  S
C245        C257   1.550       .  S
C246        C247   1.591       .  S
C246        C252   1.577       .  S
C246        C341   1.562       .  S
C247        C248   1.587       .  S
C247        C251   1.566       .  S
C247        C271   1.585       .  S
C248        C250   1.575       .  S
C248        C299   1.551       .  S
C249        C250   1.582       .  S
C249        C252   1.571       .  S
C249        C327   1.570       .  S
C250        C251   1.586       .  S
C250        C282   1.567       .  S
C251        C252   1.573       .  S
C251        C355   1.560       .  S
C252        C313   1.556       .  S
C253        C254   1.382       .  A
C253        C258   1.388       .  A
C253        H260   1.086       .  S
C254        C255   1.417       .  A
C255        C256   1.413       .  A
C255        N262   1.438       .  S
C256        C257   1.416       .  A
C256        H261   1.083       .  S
C257        C258   1.423       .  A
C258        N259   1.417       .  S
N259        H263   1.046       .  S
N259        H264   1.046       .  S
N262        H265   1.043       .  S
N262        H266   1.046       .  S
C267        C268   1.396       .  A
C267        C272   1.414       .  A
C267        H274   1.084       .  S
C268        C269   1.400       .  A
C269        C270   1.400       .  A
C269        N276   1.440       .  S
C270        C271   1.417       .  A
C270        H275   1.055       .  S
C271        C272   1.433       .  A
C272        N273   1.424       .  S
N273        H277   1.045       .  S
N273        H278   1.046       .  S
N276        H279   1.046       .  S
N276        H280   1.046       .  S
C281        C282   1.409       .  A
C281        C286   1.392       .  A
C281        H288   1.069       .  S
C282        C283   1.440       .  A
C283        C284   1.403       .  A
C283        N290   1.427       .  S
C284        C285   1.391       .  A
C284        H289   1.085       .  S
C285        C286   1.409       .  A
C286        N287   1.434       .  S
N287        H291   1.043       .  S
N287        H292   1.046       .  S
N290        H293   1.029       .  S
N290        H294   1.046       .  S
C295        C296   1.398       .  A
C295        C300   1.389       .  A
C295        H302   1.084       .  S
C296        C297   1.410       .  A
C297        C298   1.400       .  A
C297        N304   1.433       .  S
C298        C299   1.417       .  A
C298        H303   1.072       .  S
C299        C300   1.424       .  A
C300        N301   1.424       .  S
N301        H305   1.045       .  S
N301        H306   1.028       .  S
N304        H307   1.045       .  S
N304        H308   1.046       .  S
C309        C310   1.403       .  A
C309        C314   1.393       .  A
C309        H316   1.084       .  S
C310        C311   1.410       .  A
C311        C312   1.415       .  A
C311        N318   1.438       .  S
C312        C313   1.416       .  A
C312        H317   1.076       .  S
C313        C314   1.424       .  A
C314        N315   1.431       .  S
N315        H319   1.045       .  S
N315        H320   1.031       .  S
N318        H321   1.046       .  S
N318        H322   1.046       .  S
C323        C324   1.404       .  A
C323        C328   1.414       .  A
C323        H330   1.084       .  S
C324        C325   1.408       .  A
C325        C326   1.400       .  A
C325        N332   1.441       .  S
C326        C327   1.410       .  A
C326        H331   1.065       .  S
C327        C328   1.432       .  A
C328        N329   1.435       .  S
N329        H333   1.045       .  S
N329        H334   1.037       .  S
N332        H335   1.043       .  S
N332        H336   1.046       .  S
C337        C338   1.395       .  A
C337        C342   1.396       .  A
C337        H344   1.085       .  S
C338        C339   1.404       .  A
C339        C340   1.412       .  A
C339        N346   1.437       .  S
C340        C341   1.416       .  A
C340        H345   1.069       .  S
C341        C342   1.431       .  A
C342        N343   1.428       .  S
N343        H347   1.046       .  S
N343        H348   1.044       .  S
N346        H349   1.046       .  S
N346        H350   1.046       .  S
C351        C352   1.401       .  A
C351        C356   1.408       .  A
C351        H358   1.084       .  S
C352        C353   1.404       .  A
C353        C354   1.387       .  A
C353        N360   1.443       .  S
C354        C355   1.409       .  A
C354        H359   1.056       .  S
C355        C356   1.429       .  A
C356        N357   1.425       .  S
N357        H361   1.041       .  S
N357        H362   1.038       .  S
N360        H363   1.043       .  S
N360        H364   1.046       .  S
O365        C367   1.285       .  A
O365      Zr1105   2.417       .  S
O366        C367   1.292       .  A
O366       Zr403   2.459       .  S
C367        C492   1.499       .  S
O368        C370   1.288       .  A
O368       Zr380   2.438       .  S
O369        C370   1.287       .  A
C370        C450   1.483       .  S
O371        C373   1.288       .  A
O371      Zr1108   2.435       .  S
O372        C373   1.285       .  A
O372       Zr585   2.424       .  S
C373        C534   1.469       .  S
O374        C376   1.285       .  A
O374       Zr377   2.417       .  S
O375        C376   1.288       .  A
C376        C520   1.482       .  S
Zr377      O1093   2.415   1_455  S
Zr377       O378   2.434       .  S
Zr377       O379   2.437       .  S
Zr377      O1111   2.369   1_455  S
Zr377       O566   2.367       .  S
Zr377      O1137   2.367   1_455  S
O378       H1149   0.990   1_455  S
O379       H1148   0.990   1_455  S
O379        H424   0.990   1_455  S
Zr380      O1099   2.436   1_455  S
Zr380      O1109   2.437       .  S
Zr380       O382   2.435       .  S
Zr380       O384   2.365   1_554  S
Zr380      O1293   2.370   1_454  S
Zr380      O1136   2.366   1_455  S
O381      Zr1108   2.437       .  S
O381       H1150   0.990       .  S
O381       H1153   0.990       .  S
O382       H1143   0.990   1_455  S
O383      Zr1105   2.369       .  S
O383      Zr1290   2.372       .  S
O383       Zr403   2.389       .  S
O384       Zr559   2.367       .  S
O384        H411   0.966       .  S
O385        C387   1.295       .  A
O385      Zr1125   2.468       .  S
O386        C387   1.281       .  A
O386       Zr586   2.400       .  S
C387        C436   1.466       .  S
O388        C390   1.281       .  A
O388       Zr400   2.404       .  S
O389        C390   1.292       .  A
C390        C467   1.474       .  S
O391        C393   1.285       .  A
O391      Zr1128   2.415       .  S
O392        C393   1.284       .  A
O392       Zr404   2.420   1_554  S
C393        C478   1.481       .  S
O394        C396   1.294       .  A
O394       Zr397   2.471       .  S
O395        C396   1.287       .  A
C396        C506   1.486       .  S
Zr397      O1113   2.464       .  S
Zr397       O398   2.436       .  S
Zr397       O399   2.434       .  S
Zr397      O1315   2.367       .  S
Zr397       O406   2.371       .  S
Zr397      O1135   2.382       .  S
O398       H1146   0.990       .  S
O398        H423   0.990       .  S
O399       H1147   0.990       .  S
Zr400      O1119   2.417       .  S
Zr400      O1129   2.435       .  S
Zr400       O402   2.434       .  S
Zr400       O588   2.372   1_554  S
Zr400      O1133   2.352   1_554  S
Zr400      O1138   2.363       .  S
O401      Zr1128   2.434       .  S
O401       H1145   0.990   1_455  S
O402       H1144   0.990       .  S
O402        H426   0.990       .  S
Zr403       O554   2.429       .  S
Zr403       O590   2.393       .  S
Zr403       O409   2.393       .  S
Zr404       O568   2.403       .  S
Zr404       O405   2.392       .  S
Zr404       O589   2.392       .  S
Zr404       O410   2.383   1_556  S
O405      Zr1307   2.367       .  S
O405      Zr1128   2.353   1_556  S
O405        H413   0.965       .  S
O406       Zr582   2.372       .  S
O407      Zr1125   2.381       .  S
O407       Zr586   2.394       .  S
O408      Zr1108   2.367       .  S
O408       Zr585   2.393       .  S
O408        H412   0.966       .  S
O409      Zr1105   2.366       .  S
O409        H414   0.966       .  S
O410      Zr1128   2.362       .  S
H415       O1110   0.990       .  S
H416       O1130   0.990       .  S
H417       O1129   0.990       .  S
H418       O1126   0.990       .  S
H419       O1127   0.990       .  S
H420       O1107   0.990       .  S
H421       O1106   0.990       .  S
H422       O1109   0.990       .  S
H425       O1109   0.990   1_655  S
C427        C428   1.577       .  S
C427        C430   1.574       .  S
C427        C431   1.555       .  S
C427        C439   1.551       .  S
C428        C429   1.590       .  S
C428        C434   1.578       .  S
C428        C523   1.563       .  S
C429        C430   1.587       .  S
C429        C433   1.568       .  S
C429        C453   1.581       .  S
C430        C432   1.574       .  S
C430        C481   1.552       .  S
C431        C432   1.584       .  S
C431        C434   1.572       .  S
C431        C509   1.570       .  S
C432        C433   1.586       .  S
C432        C464   1.567       .  S
C433        C434   1.573       .  S
C433        C537   1.564       .  S
C434        C495   1.557       .  S
C435        C436   1.381       .  A
C435        C440   1.388       .  A
C435        H442   1.086       .  S
C436        C437   1.417       .  A
C437        C438   1.414       .  A
C437        N444   1.438       .  S
C438        C439   1.416       .  A
C438        H443   1.083       .  S
C439        C440   1.423       .  A
C440        N441   1.417       .  S
N441        H445   1.046       .  S
N441        H446   1.046       .  S
N444        H447   1.044       .  S
N444        H448   1.046       .  S
C449        C450   1.396       .  A
C449        C454   1.413       .  A
C449        H456   1.084       .  S
C450        C451   1.400       .  A
C451        C452   1.400       .  A
C451        N458   1.441       .  S
C452        C453   1.417       .  A
C452        H457   1.056       .  S
C453        C454   1.432       .  A
C454        N455   1.424       .  S
N455        H459   1.045       .  S
N455        H460   1.046       .  S
N458        H461   1.046       .  S
N458        H462   1.046       .  S
C463        C464   1.407       .  A
C463        C468   1.391       .  A
C463        H470   1.069       .  S
C464        C465   1.442       .  A
C465        C466   1.405       .  A
C465        N472   1.428       .  S
C466        C467   1.393       .  A
C466        H471   1.085       .  S
C467        C468   1.409       .  A
C468        N469   1.434       .  S
N469        H473   1.043       .  S
N469        H474   1.046       .  S
N472        H475   1.029       .  S
N472        H476   1.046       .  S
C477        C478   1.398       .  A
C477        C482   1.389       .  A
C477        H484   1.085       .  S
C478        C479   1.409       .  A
C479        C480   1.400       .  A
C479        N486   1.433       .  S
C480        C481   1.418       .  A
C480        H485   1.072       .  S
C481        C482   1.424       .  A
C482        N483   1.423       .  S
N483        H487   1.045       .  S
N483        H488   1.028       .  S
N486        H489   1.045       .  S
N486        H490   1.046       .  S
C491        C492   1.404       .  A
C491        C496   1.395       .  A
C491        H498   1.084       .  S
C492        C493   1.410       .  A
C493        C494   1.415       .  A
C493        N500   1.437       .  S
C494        C495   1.416       .  A
C494        H499   1.076       .  S
C495        C496   1.425       .  A
C496        N497   1.432       .  S
N497        H501   1.045       .  S
N497        H502   1.031       .  S
N500        H503   1.046       .  S
N500        H504   1.046       .  S
C505        C506   1.404       .  A
C505        C510   1.414       .  A
C505        H512   1.084       .  S
C506        C507   1.408       .  A
C507        C508   1.400       .  A
C507        N514   1.440       .  S
C508        C509   1.410       .  A
C508        H513   1.065       .  S
C509        C510   1.432       .  A
C510        N511   1.435       .  S
N511        H515   1.045       .  S
N511        H516   1.037       .  S
N514        H517   1.043       .  S
N514        H518   1.046       .  S
C519        C520   1.395       .  A
C519        C524   1.397       .  A
C519        H526   1.085       .  S
C520        C521   1.403       .  A
C521        C522   1.412       .  A
C521        N528   1.437       .  S
C522        C523   1.416       .  A
C522        H527   1.068       .  S
C523        C524   1.431       .  A
C524        N525   1.428       .  S
N525        H529   1.046       .  S
N525        H530   1.044       .  S
N528        H531   1.046       .  S
N528        H532   1.046       .  S
C533        C534   1.400       .  A
C533        C538   1.408       .  A
C533        H540   1.084       .  S
C534        C535   1.403       .  A
C535        C536   1.389       .  A
C535        N542   1.443       .  S
C536        C537   1.410       .  A
C536        H541   1.056       .  S
C537        C538   1.429       .  A
C538        N539   1.424       .  S
N539        H543   1.041       .  S
N539        H544   1.038       .  S
N542        H545   1.043       .  S
N542        H546   1.046       .  S
O547        C549   1.285       .  A
O547      Zr1287   2.417       .  S
O548        C549   1.291       .  A
O548       Zr585   2.455   1_556  S
C549        C674   1.496       .  S
O550        C552   1.289       .  A
O550       Zr562   2.440       .  S
O551        C552   1.288       .  A
C552        C632   1.485       .  S
O553        C555   1.287       .  A
O553      Zr1290   2.429       .  S
O554        C555   1.286       .  A
C555        C716   1.469       .  S
O556        C558   1.285       .  A
O556       Zr559   2.418       .  S
O557        C558   1.288       .  A
C558        C702   1.481       .  S
Zr559      O1275   2.413   1_455  S
Zr559       O560   2.434       .  S
Zr559       O561   2.439       .  S
Zr559      O1293   2.370   1_455  S
Zr559      O1319   2.366   1_455  S
O560       H1331   0.990   1_455  S
O561       H1330   0.990   1_455  S
O561        H606   0.990   1_455  S
Zr562      O1281   2.432   1_455  S
Zr562      O1291   2.436       .  S
Zr562       O564   2.436       .  S
Zr562       O566   2.367       .  S
Zr562      O1111   2.372   1_455  S
Zr562      O1318   2.366   1_455  S
O563      Zr1290   2.435       .  S
O563       H1332   0.990       .  S
O563       H1335   0.990       .  S
O564       H1325   0.990   1_455  S
O565      Zr1287   2.369       .  S
O565      Zr1108   2.368   1_556  S
O565       Zr585   2.391   1_556  S
O566        H593   0.966       .  S
O567        C569   1.294       .  A
O567      Zr1307   2.465       .  S
O568        C569   1.281       .  A
C569        C618   1.466       .  S
O570        C572   1.280       .  A
O570       Zr582   2.404       .  S
O571        C572   1.291       .  A
C572        C649   1.473       .  S
O573        C575   1.286       .  A
O573      Zr1310   2.420       .  S
O574        C575   1.284       .  A
O574       Zr586   2.423       .  S
C575        C660   1.484       .  S
O576        C578   1.294       .  A
O576       Zr579   2.471       .  S
O577        C578   1.286       .  A
C578        C688   1.484       .  S
Zr579      O1295   2.466       .  S
Zr579       O580   2.437       .  S
Zr579       O581   2.434       .  S
Zr579      O1133   2.366       .  S
Zr579       O588   2.372       .  S
Zr579      O1317   2.380       .  S
O580       H1328   0.990       .  S
O580        H605   0.990       .  S
O581       H1329   0.990       .  S
Zr582      O1301   2.417       .  S
Zr582      O1311   2.436       .  S
Zr582       O584   2.435       .  S
Zr582      O1315   2.353       .  S
Zr582      O1320   2.362       .  S
O583      Zr1310   2.435       .  S
O583       H1327   0.990       .  S
O584       H1326   0.990       .  S
O584        H608   0.990       .  S
Zr585       O591   2.393   1_554  S
Zr586       O587   2.395       .  S
Zr586       O592   2.385       .  S
O587      Zr1125   2.368       .  S
O587      Zr1310   2.353       .  S
O587        H595   0.965       .  S
O589      Zr1307   2.381       .  S
O590      Zr1290   2.367       .  S
O590        H594   0.966       .  S
O591      Zr1287   2.367       .  S
O591        H596   0.966       .  S
O592      Zr1310   2.364       .  S
H597       O1292   0.990       .  S
H598       O1312   0.990       .  S
H599       O1311   0.990       .  S
H600       O1308   0.990       .  S
H601       O1309   0.990       .  S
H602       O1289   0.990       .  S
H603       O1288   0.990       .  S
H604       O1291   0.990       .  S
H607       O1291   0.990       .  S
C609        C610   1.578       .  S
C609        C612   1.573       .  S
C609        C613   1.556       .  S
C609        C621   1.550       .  S
C610        C611   1.591       .  S
C610        C616   1.577       .  S
C610        C705   1.561       .  S
C611        C612   1.588       .  S
C611        C615   1.566       .  S
C611        C635   1.586       .  S
C612        C614   1.574       .  S
C612        C663   1.552       .  S
C613        C614   1.583       .  S
C613        C616   1.571       .  S
C613        C691   1.572       .  S
C614        C615   1.586       .  S
C614        C646   1.564       .  S
C615        C616   1.573       .  S
C615        C719   1.561       .  S
C616        C677   1.555       .  S
C617        C618   1.382       .  A
C617        C622   1.388       .  A
C617        H624   1.086       .  S
C618        C619   1.417       .  A
C619        C620   1.413       .  A
C619        N626   1.437       .  S
C620        C621   1.415       .  A
C620        H625   1.083       .  S
C621        C622   1.424       .  A
C622        N623   1.417       .  S
N623        H627   1.046       .  S
N623        H628   1.046       .  S
N626        H629   1.043       .  S
N626        H630   1.046       .  S
C631        C632   1.397       .  A
C631        C636   1.415       .  A
C631        H638   1.084       .  S
C632        C633   1.400       .  A
C633        C634   1.401       .  A
C633        N640   1.440       .  S
C634        C635   1.417       .  A
C634        H639   1.055       .  S
C635        C636   1.433       .  A
C636        N637   1.424       .  S
N637        H641   1.045       .  S
N637        H642   1.046       .  S
N640        H643   1.046       .  S
N640        H644   1.046       .  S
C645        C646   1.407       .  A
C645        C650   1.391       .  A
C645        H652   1.069       .  S
C646        C647   1.440       .  A
C647        C648   1.404       .  A
C647        N654   1.428       .  S
C648        C649   1.392       .  A
C648        H653   1.085       .  S
C649        C650   1.409       .  A
C650        N651   1.434       .  S
N651        H655   1.043       .  S
N651        H656   1.046       .  S
N654        H657   1.029       .  S
N654        H658   1.046       .  S
C659        C660   1.398       .  A
C659        C664   1.390       .  A
C659        H666   1.084       .  S
C660        C661   1.410       .  A
C661        C662   1.401       .  A
C661        N668   1.433       .  S
C662        C663   1.418       .  A
C662        H667   1.072       .  S
C663        C664   1.424       .  A
C664        N665   1.424       .  S
N665        H669   1.045       .  S
N665        H670   1.028       .  S
N668        H671   1.045       .  S
N668        H672   1.046       .  S
C673        C674   1.403       .  A
C673        C678   1.393       .  A
C673        H680   1.084       .  S
C674        C675   1.410       .  A
C675        C676   1.415       .  A
C675        N682   1.437       .  S
C676        C677   1.416       .  A
C676        H681   1.076       .  S
C677        C678   1.424       .  A
C678        N679   1.431       .  S
N679        H683   1.045       .  S
N679        H684   1.031       .  S
N682        H685   1.046       .  S
N682        H686   1.046       .  S
C687        C688   1.403       .  A
C687        C692   1.414       .  A
C687        H694   1.084       .  S
C688        C689   1.408       .  A
C689        C690   1.401       .  A
C689        N696   1.441       .  S
C690        C691   1.411       .  A
C690        H695   1.065       .  S
C691        C692   1.432       .  A
C692        N693   1.435       .  S
N693        H697   1.045       .  S
N693        H698   1.036       .  S
N696        H699   1.043       .  S
N696        H700   1.046       .  S
C701        C702   1.395       .  A
C701        C706   1.396       .  A
C701        H708   1.085       .  S
C702        C703   1.404       .  A
C703        C704   1.411       .  A
C703        N710   1.437       .  S
C704        C705   1.416       .  A
C704        H709   1.069       .  S
C705        C706   1.431       .  A
C706        N707   1.428       .  S
N707        H711   1.046       .  S
N707        H712   1.044       .  S
N710        H713   1.046       .  S
N710        H714   1.046       .  S
C715        C716   1.400       .  A
C715        C720   1.408       .  A
C715        H722   1.084       .  S
C716        C717   1.404       .  A
C717        C718   1.388       .  A
C717        N724   1.443       .  S
C718        C719   1.409       .  A
C718        H723   1.056       .  S
C719        C720   1.429       .  A
C720        N721   1.425       .  S
N721        H725   1.041       .  S
N721        H726   1.038       .  S
N724        H727   1.043       .  S
N724        H728   1.046       .  S
O729        C731   1.285       .  A
O730        C731   1.292       .  A
O730       Zr767   2.458       .  S
C731        C856   1.499       .  S
O732        C734   1.289       .  A
O732       Zr744   2.440       .  S
O733        C734   1.286       .  A
O733      Zr1132   2.431   1_554  S
C734        C814   1.482       .  S
O735        C737   1.287       .  A
O736        C737   1.286       .  A
O736       Zr949   2.426       .  S
C737        C898   1.469       .  S
O738        C740   1.286       .  A
O738       Zr741   2.421       .  S
O739        C740   1.289       .  A
O739      Zr1314   2.444       .  S
C740        C884   1.484       .  S
Zr741       O742   2.435       .  S
Zr741       O743   2.436       .  S
Zr741       O930   2.367       .  S
Zr741      O1135   2.368       .  S
O743        H788   0.990       .  S
Zr744       O746   2.436       .  S
Zr744       O748   2.366       .  S
Zr744      O1138   2.367       .  S
O747       Zr767   2.388       .  S
O748       Zr923   2.367   1_554  S
O748      Zr1132   2.384   1_554  S
O748        H775   0.966       .  S
O749        C751   1.295       .  A
O750        C751   1.281       .  A
O750       Zr950   2.401   1_545  S
C751        C800   1.467       .  S
O752        C754   1.280       .  A
O752       Zr764   2.404   1_655  S
O753        C754   1.291       .  A
O753      Zr1313   2.451   1_544  S
C754        C831   1.475       .  S
O755        C757   1.285       .  A
O756        C757   1.284       .  A
O756       Zr768   2.423   1_544  S
C757        C842   1.483       .  S
O758        C760   1.295       .  A
O758       Zr761   2.475   1_655  S
O759        C760   1.287       .  A
O759      Zr1131   2.431   1_545  S
C760        C870   1.487       .  S
Zr761       O762   2.435       .  S
Zr761       O763   2.435       .  S
Zr761       O770   2.372   1_455  S
Zr761      O1137   2.370   1_445  S
O762        H787   0.990       .  S
Zr764       O766   2.435       .  S
Zr764       O952   2.372   1_454  S
Zr764      O1136   2.362   1_445  S
O766        H790   0.990       .  S
Zr767       O918   2.428       .  S
Zr767      O1299   2.448       .  S
Zr767      O1123   2.430       .  S
Zr767      O1134   2.391       .  S
Zr767       O954   2.394       .  S
Zr767       O773   2.392       .  S
Zr768      O1097   2.436   1_556  S
Zr768      O1285   2.442       .  S
Zr768       O932   2.402   1_565  S
Zr768      O1112   2.384       .  S
Zr768       O769   2.392   1_565  S
Zr768       O953   2.393       .  S
Zr768       O774   2.384   1_556  S
O769        H777   0.965       .  S
O770       Zr946   2.372   1_655  S
O770      Zr1131   2.390   1_545  S
O771      Zr1105   2.367       .  S
O771       Zr950   2.394       .  S
O772      Zr1128   2.360   1_655  S
O772       Zr949   2.392       .  S
O772        H776   0.966       .  S
O773      Zr1125   2.371   1_655  S
O773        H778   0.966       .  S
O774      Zr1108   2.369       .  S
C791        C792   1.578       .  S
C791        C794   1.574       .  S
C791        C795   1.556       .  S
C791        C803   1.551       .  S
C792        C793   1.592       .  S
C792        C798   1.578       .  S
C792        C887   1.565       .  S
C793        C794   1.586       .  S
C793        C797   1.567       .  S
C793        C817   1.583       .  S
C794        C796   1.575       .  S
C794        C845   1.552       .  S
C795        C796   1.583       .  S
C795        C798   1.572       .  S
C795        C873   1.571       .  S
C796        C797   1.586       .  S
C796        C828   1.568       .  S
C797        C798   1.574       .  S
C797        C901   1.562       .  S
C798        C859   1.557       .  S
C799        C800   1.381       .  A
C799        C804   1.388       .  A
C799        H806   1.086       .  S
C800        C801   1.417       .  A
C801        C802   1.414       .  A
C801        N808   1.438       .  S
C802        C803   1.416       .  A
C802        H807   1.083       .  S
C803        C804   1.424       .  A
C804        N805   1.417       .  S
N805        H809   1.046       .  S
N805        H810   1.046       .  S
N808        H811   1.043       .  S
N808        H812   1.046       .  S
C813        C814   1.397       .  A
C813        C818   1.414       .  A
C813        H820   1.084       .  S
C814        C815   1.399       .  A
C815        C816   1.399       .  A
C815        N822   1.440       .  S
C816        C817   1.416       .  A
C816        H821   1.055       .  S
C817        C818   1.433       .  A
C818        N819   1.424       .  S
N819        H823   1.045       .  S
N819        H824   1.046       .  S
N822        H825   1.046       .  S
N822        H826   1.046       .  S
C827        C828   1.408       .  A
C827        C832   1.393       .  A
C827        H834   1.069       .  S
C828        C829   1.441       .  A
C829        C830   1.404       .  A
C829        N836   1.428       .  S
C830        C831   1.392       .  A
C830        H835   1.085       .  S
C831        C832   1.409       .  A
C832        N833   1.434       .  S
N833        H837   1.043       .  S
N833        H838   1.046       .  S
N836        H839   1.029       .  S
N836        H840   1.046       .  S
C841        C842   1.399       .  A
C841        C846   1.390       .  A
C841        H848   1.084       .  S
C842        C843   1.409       .  A
C843        C844   1.400       .  A
C843        N850   1.433       .  S
C844        C845   1.417       .  A
C844        H849   1.072       .  S
C845        C846   1.425       .  A
C846        N847   1.424       .  S
N847        H851   1.045       .  S
N847        H852   1.028       .  S
N850        H853   1.045       .  S
N850        H854   1.046       .  S
C855        C856   1.404       .  A
C855        C860   1.394       .  A
C855        H862   1.084       .  S
C856        C857   1.410       .  A
C857        C858   1.415       .  A
C857        N864   1.437       .  S
C858        C859   1.416       .  A
C858        H863   1.076       .  S
C859        C860   1.424       .  A
C860        N861   1.431       .  S
N861        H865   1.045       .  S
N861        H866   1.031       .  S
N864        H867   1.046       .  S
N864        H868   1.046       .  S
C869        C870   1.405       .  A
C869        C874   1.415       .  A
C869        H876   1.084       .  S
C870        C871   1.409       .  A
C871        C872   1.401       .  A
C871        N878   1.441       .  S
C872        C873   1.411       .  A
C872        H877   1.065       .  S
C873        C874   1.431       .  A
C874        N875   1.435       .  S
N875        H879   1.045       .  S
N875        H880   1.037       .  S
N878        H881   1.043       .  S
N878        H882   1.046       .  S
C883        C884   1.394       .  A
C883        C888   1.397       .  A
C883        H890   1.085       .  S
C884        C885   1.404       .  A
C885        C886   1.413       .  A
C885        N892   1.438       .  S
C886        C887   1.418       .  A
C886        H891   1.069       .  S
C887        C888   1.431       .  A
C888        N889   1.428       .  S
N889        H893   1.046       .  S
N889        H894   1.044       .  S
N892        H895   1.046       .  S
N892        H896   1.046       .  S
C897        C898   1.401       .  A
C897        C902   1.408       .  A
C897        H904   1.084       .  S
C898        C899   1.404       .  A
C899        C900   1.388       .  A
C899        N906   1.443       .  S
C900        C901   1.410       .  A
C900        H905   1.057       .  S
C901        C902   1.428       .  A
C902        N903   1.425       .  S
N903        H907   1.041       .  S
N903        H908   1.038       .  S
N906        H909   1.043       .  S
N906        H910   1.046       .  S
O911        C913   1.285       .  A
O912        C913   1.291       .  A
O912       Zr949   2.455   1_556  S
C913       C1038   1.498       .  S
O914        C916   1.289       .  A
O914       Zr926   2.440       .  S
O915        C916   1.288       .  A
O915      Zr1314   2.437       .  S
C916        C996   1.484       .  S
O917        C919   1.287       .  A
O918        C919   1.286       .  A
C919       C1080   1.469       .  S
O920        C922   1.285       .  A
O920       Zr923   2.420       .  S
O921        C922   1.288       .  A
O921      Zr1132   2.442       .  S
C922       C1066   1.484       .  S
Zr923       O924   2.436       .  S
Zr923       O925   2.436       .  S
Zr923      O1317   2.367       .  S
O925        H970   0.990       .  S
Zr926       O928   2.435       .  S
Zr926       O930   2.364       .  S
Zr926      O1320   2.367       .  S
O929       Zr949   2.390   1_556  S
O930      Zr1314   2.383       .  S
O930        H957   0.966       .  S
O931        C933   1.294       .  A
O932        C933   1.281       .  A
C933        C982   1.466       .  S
O934        C936   1.280       .  A
O934       Zr946   2.402   1_655  S
O935        C936   1.291       .  A
O935      Zr1131   2.450   1_545  S
C936       C1013   1.472       .  S
O937        C939   1.285       .  A
O938        C939   1.284       .  A
O938       Zr950   2.421   1_545  S
C939       C1024   1.483       .  S
O940        C942   1.294       .  A
O940       Zr943   2.471   1_655  S
O941        C942   1.287       .  A
O941      Zr1313   2.430   1_545  S
C942       C1052   1.485       .  S
Zr943       O944   2.436       .  S
Zr943       O945   2.436       .  S
Zr943       O952   2.373   1_455  S
Zr943      O1319   2.370   1_445  S
O944        H969   0.990       .  S
Zr946       O948   2.433       .  S
Zr946      O1318   2.363   1_445  S
O948        H972   0.990       .  S
Zr949      O1117   2.453       .  S
Zr949      O1305   2.428   1_554  S
Zr949      O1316   2.389       .  S
Zr949       O955   2.391   1_554  S
Zr950      O1279   2.435       .  S
Zr950      O1103   2.440       .  S
Zr950      O1294   2.383       .  S
Zr950       O951   2.392   1_565  S
Zr950       O956   2.384       .  S
O951        H959   0.965       .  S
O952      Zr1313   2.389   1_545  S
O953      Zr1287   2.365       .  S
O954      Zr1310   2.362   1_655  S
O954        H958   0.966       .  S
O955      Zr1307   2.369   1_655  S
O955        H960   0.966       .  S
O956      Zr1290   2.368       .  S
C973        C974   1.578       .  S
C973        C976   1.573       .  S
C973        C977   1.555       .  S
C973        C985   1.550       .  S
C974        C975   1.591       .  S
C974        C980   1.577       .  S
C974       C1069   1.564       .  S
C975        C976   1.587       .  S
C975        C979   1.567       .  S
C975        C999   1.584       .  S
C976        C978   1.574       .  S
C976       C1027   1.551       .  S
C977        C978   1.583       .  S
C977        C980   1.572       .  S
C977       C1055   1.571       .  S
C978        C979   1.586       .  S
C978       C1010   1.566       .  S
C979        C980   1.573       .  S
C979       C1083   1.561       .  S
C980       C1041   1.557       .  S
C981        C982   1.382       .  A
C981        C986   1.388       .  A
C981        H988   1.086       .  S
C982        C983   1.417       .  A
C983        C984   1.413       .  A
C983        N990   1.438       .  S
C984        C985   1.416       .  A
C984        H989   1.083       .  S
C985        C986   1.423       .  A
C986        N987   1.417       .  S
N987        H991   1.046       .  S
N987        H992   1.046       .  S
N990        H993   1.043       .  S
N990        H994   1.046       .  S
C995        C996   1.396       .  A
C995       C1000   1.414       .  A
C995       H1002   1.084       .  S
C996        C997   1.400       .  A
C997        C998   1.400       .  A
C997       N1004   1.440       .  S
C998        C999   1.417       .  A
C998       H1003   1.055       .  S
C999       C1000   1.432       .  A
C1000      N1001   1.424       .  S
N1001      H1005   1.045       .  S
N1001      H1006   1.046       .  S
N1004      H1007   1.046       .  S
N1004      H1008   1.046       .  S
C1009      C1010   1.408       .  A
C1009      C1014   1.391       .  A
C1009      H1016   1.068       .  S
C1010      C1011   1.441       .  A
C1011      C1012   1.403       .  A
C1011      N1018   1.428       .  S
C1012      C1013   1.392       .  A
C1012      H1017   1.085       .  S
C1013      C1014   1.408       .  A
C1014      N1015   1.434       .  S
N1015      H1019   1.043       .  S
N1015      H1020   1.046       .  S
N1018      H1021   1.029       .  S
N1018      H1022   1.046       .  S
C1023      C1024   1.399       .  A
C1023      C1028   1.389       .  A
C1023      H1030   1.084       .  S
C1024      C1025   1.410       .  A
C1025      C1026   1.400       .  A
C1025      N1032   1.433       .  S
C1026      C1027   1.418       .  A
C1026      H1031   1.072       .  S
C1027      C1028   1.424       .  A
C1028      N1029   1.424       .  S
N1029      H1033   1.045       .  S
N1029      H1034   1.028       .  S
N1032      H1035   1.045       .  S
N1032      H1036   1.046       .  S
C1037      C1038   1.404       .  A
C1037      C1042   1.394       .  A
C1037      H1044   1.084       .  S
C1038      C1039   1.410       .  A
C1039      C1040   1.415       .  A
C1039      N1046   1.437       .  S
C1040      C1041   1.416       .  A
C1040      H1045   1.076       .  S
C1041      C1042   1.424       .  A
C1042      N1043   1.432       .  S
N1043      H1047   1.045       .  S
N1043      H1048   1.031       .  S
N1046      H1049   1.046       .  S
N1046      H1050   1.046       .  S
C1051      C1052   1.404       .  A
C1051      C1056   1.415       .  A
C1051      H1058   1.084       .  S
C1052      C1053   1.408       .  A
C1053      C1054   1.400       .  A
C1053      N1060   1.441       .  S
C1054      C1055   1.410       .  A
C1054      H1059   1.065       .  S
C1055      C1056   1.432       .  A
C1056      N1057   1.435       .  S
N1057      H1061   1.045       .  S
N1057      H1062   1.037       .  S
N1060      H1063   1.043       .  S
N1060      H1064   1.046       .  S
C1065      C1066   1.395       .  A
C1065      C1070   1.397       .  A
C1065      H1072   1.085       .  S
C1066      C1067   1.404       .  A
C1067      C1068   1.413       .  A
C1067      N1074   1.437       .  S
C1068      C1069   1.417       .  A
C1068      H1073   1.069       .  S
C1069      C1070   1.431       .  A
C1070      N1071   1.428       .  S
N1071      H1075   1.046       .  S
N1071      H1076   1.044       .  S
N1074      H1077   1.046       .  S
N1074      H1078   1.046       .  S
C1079      C1080   1.400       .  A
C1079      C1084   1.408       .  A
C1079      H1086   1.084       .  S
C1080      C1081   1.404       .  A
C1081      C1082   1.389       .  A
C1081      N1088   1.443       .  S
C1082      C1083   1.410       .  A
C1082      H1087   1.057       .  S
C1083      C1084   1.429       .  A
C1084      N1085   1.425       .  S
N1085      H1089   1.041       .  S
N1085      H1090   1.038       .  S
N1088      H1091   1.043       .  S
N1088      H1092   1.046       .  S
O1093      C1095   1.285       .  A
O1094      C1095   1.291       .  A
O1094     Zr1131   2.455       .  S
C1095      C1220   1.497       .  S
O1096      C1098   1.288       .  A
O1096     Zr1108   2.438       .  S
O1097      C1098   1.288       .  A
C1098      C1178   1.484       .  S
O1099      C1101   1.288       .  A
O1100      C1101   1.286       .  A
O1100     Zr1313   2.426   1_554  S
C1101      C1262   1.470       .  S
O1102      C1104   1.286       .  A
O1102     Zr1105   2.421       .  S
O1103      C1104   1.288       .  A
C1104      C1248   1.483       .  S
Zr1105     O1106   2.433       .  S
Zr1105     O1107   2.437       .  S
Zr1105     O1294   2.367       .  S
O1107      H1152   0.990       .  S
Zr1108     O1110   2.434       .  S
Zr1108     O1112   2.364   1_554  S
O1111     Zr1131   2.388       .  S
O1112     Zr1287   2.366       .  S
O1112      H1139   0.966       .  S
O1113      C1115   1.294       .  A
O1114      C1115   1.282       .  A
O1114     Zr1314   2.406       .  S
C1115      C1164   1.467       .  S
O1116      C1118   1.280       .  A
O1116     Zr1128   2.403   1_655  S
O1117      C1118   1.292       .  A
C1118      C1195   1.475       .  S
O1119      C1121   1.286       .  A
O1120      C1121   1.283       .  A
O1120     Zr1132   2.420   1_554  S
C1121      C1206   1.482       .  S
O1122      C1124   1.294       .  A
O1122     Zr1125   2.473   1_655  S
O1123      C1124   1.287       .  A
C1124      C1234   1.485       .  S
Zr1125     O1126   2.436       .  S
Zr1125     O1127   2.435       .  S
Zr1125     O1134   2.372   1_455  S
O1126      H1151   0.990       .  S
Zr1128     O1130   2.436       .  S
Zr1128     O1316   2.374   1_455  S
O1130      H1154   0.990       .  S
Zr1131     O1282   2.429       .  S
Zr1131     O1318   2.392       .  S
Zr1131     O1137   2.393       .  S
Zr1132     O1296   2.402       .  S
Zr1132     O1133   2.392       .  S
Zr1132     O1317   2.390       .  S
Zr1132     O1138   2.382   1_556  S
O1133      H1141   0.965       .  S
O1134     Zr1310   2.374   1_655  S
O1135     Zr1314   2.393       .  S
O1136     Zr1313   2.393   1_554  S
O1136      H1140   0.966       .  S
O1137      H1142   0.966       .  S
C1155      C1156   1.577       .  S
C1155      C1158   1.574       .  S
C1155      C1159   1.555       .  S
C1155      C1167   1.551       .  S
C1156      C1157   1.591       .  S
C1156      C1162   1.578       .  S
C1156      C1251   1.563       .  S
C1157      C1158   1.587       .  S
C1157      C1161   1.567       .  S
C1157      C1181   1.583       .  S
C1158      C1160   1.575       .  S
C1158      C1209   1.552       .  S
C1159      C1160   1.583       .  S
C1159      C1162   1.571       .  S
C1159      C1237   1.571       .  S
C1160      C1161   1.587       .  S
C1160      C1192   1.567       .  S
C1161      C1162   1.573       .  S
C1161      C1265   1.562       .  S
C1162      C1223   1.557       .  S
C1163      C1164   1.382       .  A
C1163      C1168   1.389       .  A
C1163      H1170   1.086       .  S
C1164      C1165   1.417       .  A
C1165      C1166   1.414       .  A
C1165      N1172   1.437       .  S
C1166      C1167   1.416       .  A
C1166      H1171   1.083       .  S
C1167      C1168   1.423       .  A
C1168      N1169   1.417       .  S
N1169      H1173   1.046       .  S
N1169      H1174   1.046       .  S
N1172      H1175   1.044       .  S
N1172      H1176   1.046       .  S
C1177      C1178   1.397       .  A
C1177      C1182   1.414       .  A
C1177      H1184   1.084       .  S
C1178      C1179   1.400       .  A
C1179      C1180   1.400       .  A
C1179      N1186   1.440       .  S
C1180      C1181   1.417       .  A
C1180      H1185   1.056       .  S
C1181      C1182   1.432       .  A
C1182      N1183   1.424       .  S
N1183      H1187   1.045       .  S
N1183      H1188   1.046       .  S
N1186      H1189   1.046       .  S
N1186      H1190   1.046       .  S
C1191      C1192   1.408       .  A
C1191      C1196   1.391       .  A
C1191      H1198   1.069       .  S
C1192      C1193   1.440       .  A
C1193      C1194   1.405       .  A
C1193      N1200   1.428       .  S
C1194      C1195   1.393       .  A
C1194      H1199   1.085       .  S
C1195      C1196   1.409       .  A
C1196      N1197   1.434       .  S
N1197      H1201   1.043       .  S
N1197      H1202   1.046       .  S
N1200      H1203   1.029       .  S
N1200      H1204   1.046       .  S
C1205      C1206   1.398       .  A
C1205      C1210   1.389       .  A
C1205      H1212   1.085       .  S
C1206      C1207   1.410       .  A
C1207      C1208   1.401       .  A
C1207      N1214   1.433       .  S
C1208      C1209   1.418       .  A
C1208      H1213   1.072       .  S
C1209      C1210   1.424       .  A
C1210      N1211   1.423       .  S
N1211      H1215   1.045       .  S
N1211      H1216   1.027       .  S
N1214      H1217   1.045       .  S
N1214      H1218   1.046       .  S
C1219      C1220   1.403       .  A
C1219      C1224   1.394       .  A
C1219      H1226   1.084       .  S
C1220      C1221   1.410       .  A
C1221      C1222   1.415       .  A
C1221      N1228   1.437       .  S
C1222      C1223   1.416       .  A
C1222      H1227   1.076       .  S
C1223      C1224   1.425       .  A
C1224      N1225   1.431       .  S
N1225      H1229   1.045       .  S
N1225      H1230   1.030       .  S
N1228      H1231   1.046       .  S
N1228      H1232   1.046       .  S
C1233      C1234   1.404       .  A
C1233      C1238   1.414       .  A
C1233      H1240   1.084       .  S
C1234      C1235   1.408       .  A
C1235      C1236   1.401       .  A
C1235      N1242   1.440       .  S
C1236      C1237   1.410       .  A
C1236      H1241   1.066       .  S
C1237      C1238   1.432       .  A
C1238      N1239   1.435       .  S
N1239      H1243   1.045       .  S
N1239      H1244   1.036       .  S
N1242      H1245   1.043       .  S
N1242      H1246   1.046       .  S
C1247      C1248   1.395       .  A
C1247      C1252   1.396       .  A
C1247      H1254   1.085       .  S
C1248      C1249   1.405       .  A
C1249      C1250   1.412       .  A
C1249      N1256   1.437       .  S
C1250      C1251   1.416       .  A
C1250      H1255   1.068       .  S
C1251      C1252   1.431       .  A
C1252      N1253   1.429       .  S
N1253      H1257   1.046       .  S
N1253      H1258   1.044       .  S
N1256      H1259   1.046       .  S
N1256      H1260   1.046       .  S
C1261      C1262   1.400       .  A
C1261      C1266   1.409       .  A
C1261      H1268   1.084       .  S
C1262      C1263   1.404       .  A
C1263      C1264   1.388       .  A
C1263      N1270   1.443       .  S
C1264      C1265   1.409       .  A
C1264      H1269   1.056       .  S
C1265      C1266   1.430       .  A
C1266      N1267   1.425       .  S
N1267      H1271   1.041       .  S
N1267      H1272   1.038       .  S
N1270      H1273   1.043       .  S
N1270      H1274   1.046       .  S
O1275      C1277   1.284       .  A
O1276      C1277   1.291       .  A
O1276     Zr1313   2.457       .  S
C1277      C1402   1.496       .  S
O1278      C1280   1.288       .  A
O1278     Zr1290   2.438       .  S
O1279      C1280   1.287       .  A
C1280      C1360   1.484       .  S
O1281      C1283   1.287       .  A
O1282      C1283   1.286       .  A
C1283      C1444   1.470       .  S
O1284      C1286   1.285       .  A
O1284     Zr1287   2.421       .  S
O1285      C1286   1.288       .  A
C1286      C1430   1.483       .  S
Zr1287     O1288   2.434       .  S
Zr1287     O1289   2.436       .  S
O1289      H1334   0.990       .  S
Zr1290     O1292   2.436       .  S
Zr1290     O1294   2.365       .  S
O1293     Zr1313   2.389       .  S
O1294      H1321   0.966       .  S
O1295      C1297   1.294       .  A
O1296      C1297   1.281       .  A
C1297      C1346   1.467       .  S
O1298      C1300   1.280       .  A
O1298     Zr1310   2.404   1_655  S
O1299      C1300   1.291       .  A
C1300      C1377   1.472       .  S
O1301      C1303   1.286       .  A
O1302      C1303   1.284       .  A
O1302     Zr1314   2.423       .  S
C1303      C1388   1.483       .  S
O1304      C1306   1.294       .  A
O1304     Zr1307   2.469   1_655  S
O1305      C1306   1.286       .  A
C1306      C1416   1.483       .  S
Zr1307     O1308   2.438       .  S
Zr1307     O1309   2.435       .  S
Zr1307     O1316   2.373   1_456  S
O1308      H1333   0.990       .  S
Zr1310     O1312   2.435       .  S
O1312      H1336   0.990       .  S
Zr1313     O1319   2.391       .  S
Zr1314     O1315   2.392       .  S
Zr1314     O1320   2.383       .  S
O1315      H1323   0.965       .  S
O1318      H1322   0.966       .  S
O1319      H1324   0.966       .  S
C1337      C1338   1.578       .  S
C1337      C1340   1.574       .  S
C1337      C1341   1.555       .  S
C1337      C1349   1.552       .  S
C1338      C1339   1.591       .  S
C1338      C1344   1.578       .  S
C1338      C1433   1.564       .  S
C1339      C1340   1.587       .  S
C1339      C1343   1.567       .  S
C1339      C1363   1.583       .  S
C1340      C1342   1.573       .  S
C1340      C1391   1.551       .  S
C1341      C1342   1.582       .  S
C1341      C1344   1.571       .  S
C1341      C1419   1.571       .  S
C1342      C1343   1.584       .  S
C1342      C1374   1.563       .  S
C1343      C1344   1.572       .  S
C1343      C1447   1.562       .  S
C1344      C1405   1.553       .  S
C1345      C1346   1.381       .  A
C1345      C1350   1.388       .  A
C1345      H1352   1.086       .  S
C1346      C1347   1.417       .  A
C1347      C1348   1.414       .  A
C1347      N1354   1.438       .  S
C1348      C1349   1.416       .  A
C1348      H1353   1.083       .  S
C1349      C1350   1.423       .  A
C1350      N1351   1.417       .  S
N1351      H1355   1.046       .  S
N1351      H1356   1.046       .  S
N1354      H1357   1.044       .  S
N1354      H1358   1.046       .  S
C1359      C1360   1.396       .  A
C1359      C1364   1.414       .  A
C1359      H1366   1.084       .  S
C1360      C1361   1.400       .  A
C1361      C1362   1.400       .  A
C1361      N1368   1.440       .  S
C1362      C1363   1.417       .  A
C1362      H1367   1.055       .  S
C1363      C1364   1.432       .  A
C1364      N1365   1.425       .  S
N1365      H1369   1.045       .  S
N1365      H1370   1.046       .  S
N1368      H1371   1.046       .  S
N1368      H1372   1.046       .  S
C1373      C1374   1.407       .  A
C1373      C1378   1.390       .  A
C1373      H1380   1.068       .  S
C1374      C1375   1.440       .  A
C1375      C1376   1.404       .  A
C1375      N1382   1.428       .  S
C1376      C1377   1.393       .  A
C1376      H1381   1.085       .  S
C1377      C1378   1.409       .  A
C1378      N1379   1.434       .  S
N1379      H1383   1.043       .  S
N1379      H1384   1.046       .  S
N1382      H1385   1.029       .  S
N1382      H1386   1.046       .  S
C1387      C1388   1.399       .  A
C1387      C1392   1.389       .  A
C1387      H1394   1.084       .  S
C1388      C1389   1.410       .  A
C1389      C1390   1.400       .  A
C1389      N1396   1.433       .  S
C1390      C1391   1.418       .  A
C1390      H1395   1.071       .  S
C1391      C1392   1.424       .  A
C1392      N1393   1.424       .  S
N1393      H1397   1.045       .  S
N1393      H1398   1.027       .  S
N1396      H1399   1.045       .  S
N1396      H1400   1.046       .  S
C1401      C1402   1.404       .  A
C1401      C1406   1.393       .  A
C1401      H1408   1.084       .  S
C1402      C1403   1.410       .  A
C1403      C1404   1.413       .  A
C1403      N1410   1.437       .  S
C1404      C1405   1.415       .  A
C1404      H1409   1.076       .  S
C1405      C1406   1.424       .  A
C1406      N1407   1.432       .  S
N1407      H1411   1.045       .  S
N1407      H1412   1.031       .  S
N1410      H1413   1.046       .  S
N1410      H1414   1.046       .  S
C1415      C1416   1.404       .  A
C1415      C1420   1.414       .  A
C1415      H1422   1.084       .  S
C1416      C1417   1.407       .  A
C1417      C1418   1.399       .  A
C1417      N1424   1.441       .  S
C1418      C1419   1.410       .  A
C1418      H1423   1.064       .  S
C1419      C1420   1.433       .  A
C1420      N1421   1.435       .  S
N1421      H1425   1.045       .  S
N1421      H1426   1.036       .  S
N1424      H1427   1.043       .  S
N1424      H1428   1.046       .  S
C1429      C1430   1.395       .  A
C1429      C1434   1.397       .  A
C1429      H1436   1.085       .  S
C1430      C1431   1.404       .  A
C1431      C1432   1.413       .  A
C1431      N1438   1.437       .  S
C1432      C1433   1.417       .  A
C1432      H1437   1.069       .  S
C1433      C1434   1.431       .  A
C1434      N1435   1.428       .  S
N1435      H1439   1.046       .  S
N1435      H1440   1.044       .  S
N1438      H1441   1.046       .  S
N1438      H1442   1.046       .  S
C1443      C1444   1.400       .  A
C1443      C1448   1.408       .  A
C1443      H1450   1.084       .  S
C1444      C1445   1.405       .  A
C1445      C1446   1.389       .  A
C1445      N1452   1.443       .  S
C1446      C1447   1.410       .  A
C1446      H1451   1.057       .  S
C1447      C1448   1.429       .  A
C1448      N1449   1.425       .  S
N1449      H1453   1.041       .  S
N1449      H1454   1.038       .  S
N1452      H1455   1.043       .  S
N1452      H1456   1.046       .  S
