geometry optimzed in LAMMPS
_audit_creation_date              2020-11-30 
_audit_creation_method            'lammps2cif' 
_symmetry_space_group_name_H-M    'P1' 
_symmetry_Int_Tables_number       1 
_symmetry_cell_setting            triclinic 
loop_ 
_symmetry_equiv_pos_as_xyz 
  x,y,z 
_cell_length_a                    42.538651072614776 
_cell_length_b                    41.51275549741004 
_cell_length_c                    42.08937760127959 
_cell_angle_alpha                 89.8347409773687 
_cell_angle_beta                  90.1836867089081 
_cell_angle_gamma                 89.98020352360084 
loop_ 
_atom_site_label 
_atom_site_type_symbol 
_atom_site_fract_x 
_atom_site_fract_y 
_atom_site_fract_z 
_atom_site_charge 
C1          C  0.36708666  0.36849094  0.98657765     0.03380
C2          C  0.37543901  0.33532073  0.48884678    -0.12770
C3          C  0.35362332  0.31354061  0.50159580     0.00880
C4          C  0.32644792  0.32684656  0.51477443    -0.11300
C5          C  0.31377338  0.35530318  0.00206985     0.03370
C6          C  0.33494276  0.37741304  0.98908495    -0.10720
H7          H  0.39866438  0.32718509  0.48212401     0.08960
H8          H  0.31275169  0.31265839  0.53048275     0.06490
H9          H  0.32713685  0.40141152  0.98268019     0.06340
C10         C  0.36586078  0.22244483  0.51004727     0.03380
C11         C  0.37479718  0.25543760  0.50812872    -0.12770
C12         C  0.35303241  0.27776837  0.49623993     0.00880
C13         C  0.32507710  0.26524091  0.48391421    -0.11300
C14         C  0.31208017  0.23694796  0.49624725     0.03370
C15         C  0.33336179  0.21418984  0.50833336    -0.10720
H16         H  0.39832223  0.26319574  0.51432272     0.08960
H17         H  0.31092228  0.28011172  0.46923418     0.06490
H18         H  0.32529534  0.19037704  0.51498362     0.06340
C19         C  0.22298465  0.22515874  0.48664949     0.03380
C20         C  0.25505990  0.21531681  0.48926781    -0.12770
C21         C  0.27705390  0.23737836  0.50135592     0.00880
C22         C  0.26484894  0.26600944  0.51351515    -0.11300
C23         C  0.23781671  0.27970550  0.50037661     0.03370
C24         C  0.21579122  0.25857356  0.48736640    -0.10720
H25         H  0.26233093  0.19103943  0.48352352     0.08960
H26         H  0.27901276  0.28010156  0.52882051     0.06490
H27         H  0.19268453  0.26714304  0.98010801     0.06340
C28         C  0.22567069  0.36953889  0.01308280     0.03380
C29         C  0.25804664  0.37784391  0.01131877    -0.12770
C30         C  0.27886100  0.35588582  0.99748996     0.00880
C31         C  0.26559733  0.32852766  0.98368885    -0.11300
C32         C  0.23797522  0.31532877  0.99595362     0.03370
C33         C  0.21661291  0.33681193  0.00961091    -0.10720
H34         H  0.26629087  0.40129395  0.01886257     0.08960
H35         H  0.27916736  0.31484554  0.96748472     0.06490
H36         H  0.19319960  0.32875929  0.01579162     0.06340
C37         C  0.36693725  0.06148736  0.32154908     0.03380
C38         C  0.33431704  0.05974616  0.32978645    -0.12770
C39         C  0.31270662  0.04791264  0.30734687     0.00880
C40         C  0.32554505  0.03545385  0.27952485    -0.11300
C41         C  0.35336428  0.04762950  0.26687275     0.03370
C42         C  0.37558537  0.05895627  0.28881543    -0.10720
H43         H  0.32639046  0.06628414  0.35332251     0.08960
H44         H  0.31117767  0.02096744  0.26489867     0.06490
H45         H  0.39919835  0.06390698  0.28077090     0.06340
C46         C  0.22412014  0.03427240  0.32154438     0.03380
C47         C  0.25625941  0.03984876  0.33040415    -0.12770
C48         C  0.27727186  0.05148354  0.30735289     0.00880
C49         C  0.26379235  0.06099368  0.27848263    -0.11300
C50         C  0.23770275  0.04485307  0.26629688     0.03370
C51         C  0.21691767  0.03159795  0.28850870    -0.10720
H52         H  0.26453664  0.03652935  0.35449663     0.08960
H53         H  0.27667795  0.07629911  0.26316658     0.06490
H54         H  0.19505584  0.02097628  0.28049911     0.06340
C55         C  0.22404660  0.05672047  0.17748187     0.03380
C56         C  0.25656966  0.05733328  0.16981031    -0.12770
C57         C  0.27812243  0.04350516  0.19099980     0.00880
C58         C  0.26576289  0.02831396  0.21788423    -0.11300
C59         C  0.23751450  0.03913724  0.23105901     0.03370
C60         C  0.21528549  0.05192236  0.20979903    -0.10720
H61         H  0.26459606  0.06687304  0.14727377     0.08960
H62         H  0.28010201  0.01197906  0.23102870     0.06490
H63         H  0.19168333  0.05687670  0.21797173     0.06340
C64         C  0.36670029  0.03711674  0.17709461     0.03380
C65         C  0.37568621  0.04053293  0.20966952    -0.12770
C66         C  0.35347258  0.05252275  0.23130593     0.00880
C67         C  0.32535727  0.06402696  0.21818785    -0.11300
C68         C  0.31276277  0.04983007  0.19098684     0.03370
C69         C  0.33416044  0.03701208  0.16928694    -0.10720
H70         H  0.39933713  0.03517943  0.21763362     0.08960
H71         H  0.31109407  0.07962967  0.23191828     0.06490
H72         H  0.32601720  0.02850067  0.14639266     0.06340
C73         C  0.06054676  0.22656916  0.32311171     0.03380
C74         C  0.07061348  0.25872210  0.32750738    -0.12770
C75         C  0.08109333  0.27680226  0.30122092     0.00880
C76         C  0.08668634  0.25943332  0.27299771    -0.11300
C77         C  0.06744085  0.23285355  0.26625322     0.03370
C78         C  0.05578419  0.21510236  0.29197041    -0.10720
H79         H  0.06858412  0.26970198  0.35070842     0.08960
H80         H  0.09799200  0.27122857  0.25312875     0.06490
H81         H  0.04257489  0.19320041  0.28780805     0.06340
C82         C  0.05545792  0.36350557  0.32118781     0.03380
C83         C  0.07081388  0.33324646  0.32503250    -0.12770
C84         C  0.07430471  0.31243461  0.29870647     0.00880
C85         C  0.06431616  0.32420689  0.26906194    -0.11300
C86         C  0.04387286  0.35012643  0.26658459     0.03370
C87         C  0.03942822  0.37008783  0.29254733    -0.10720
H88         H  0.08014310  0.32623577  0.34798116     0.08960
H89         H  0.06833597  0.31106678  0.24744868     0.06490
H90         H  0.02418612  0.39089580  0.29029933     0.06340
C91         C  0.04148777  0.22453025  0.18018212     0.03380
C92         C  0.05436874  0.21570643  0.20982984    -0.12770
C93         C  0.04915030  0.23517906  0.23618490     0.00880
C94         C  0.02980791  0.26220002  0.23285337    -0.11300
C95         C  0.02134203  0.27489726  0.20281929     0.03370
C96         C  0.02658326  0.25488549  0.17625030    -0.10720
H97         H  0.06828525  0.19396259  0.21223954     0.08960
H98         H  0.02539217  0.27530255  0.25441116     0.06490
H99         H  0.01906783  0.26251421  0.15281527     0.06340
C100        C  0.03297506  0.36253871  0.18011161     0.03380
C101        C  0.03987219  0.37021057  0.21192963    -0.12770
C102        C  0.02622377  0.35294372  0.23663414     0.00880
C103        C  0.00664941  0.32706470  0.22887956    -0.11300
C104        C  0.01321074  0.31051757  0.20052057     0.03370
C105        C  0.02291640  0.33005332  0.17459320    -0.10720
H106        H  0.05802160  0.38745056  0.21768945     0.08960
H107        H  0.99499223  0.31469866  0.24819585     0.06490
H108        H  0.02455928  0.31921576  0.15144391     0.06340
O109        O  0.49379216  0.45355212  0.49609328    -0.79880
O110        O  0.49419863  0.13718874  0.50382295    -0.81440
O111        O  0.45560492  0.04199900  0.05151859    -0.78460
O112        O  0.45610424  0.04814692  0.44707018    -0.76840
O113        O  0.49373020  0.04836420  0.40825860    -0.78630
O114        O  0.49310600  0.04050180  0.09063105    -0.79560
O115        O  0.45622701  0.09816491  0.50152853    -0.80890
O116        O  0.45593677  0.49283426  0.49727847    -0.81180
Eu117      Eu  0.48193433  0.04541310  0.49945770     2.39200
O118        O  0.01394122  0.07948235  0.46812405    -0.88690
O119        O  0.01314162  0.01205235  0.03281651    -0.92290
C120        C  0.46498565  0.46328923  0.49536380     1.02400
C121        C  0.46526947  0.12773215  0.50367882     1.02220
C122        C  0.46426681  0.04008510  0.08093090     1.02160
C123        C  0.46483265  0.04909667  0.41770519     1.00020
H124        H  0.00014456  0.09041757  0.04677330     0.29770
O125        O  0.01336460  0.07736991  0.03334807    -1.01080
H126        H  0.00114678  0.00101537  0.45212178     0.29800
O127        O  0.01394602  0.01399681  0.46609364    -1.03620
O128        O  0.09777054  0.13699405  0.49894812    -0.80840
O129        O  0.09685785  0.45317503  0.00391825    -0.80380
O130        O  0.04336817  0.09721911  0.09179094    -0.78820
O131        O  0.04559035  0.10218269  0.41091524    -0.82160
O132        O  0.04704577  0.49120556  0.40982493    -0.80010
O133        O  0.04580267  0.48965935  0.08893181    -0.78660
O134        O  0.13403004  0.04950870  0.05328072    -0.80180
O135        O  0.13552088  0.04186659  0.44898787    -0.82110
O136        O  0.09643401  0.04876062  0.09206634    -0.78850
O137        O  0.09836007  0.04522418  0.40987990    -0.81410
O138        O  0.04792556  0.13648176  0.05371514    -0.77260
O139        O  0.04375090  0.45167468  0.05002469    -0.77290
O140        O  0.04939279  0.45302319  0.44880520    -0.76930
O141        O  0.04458903  0.13975237  0.45077801    -0.80430
O142        O  0.13548819  0.09704861  0.99621798    -0.79860
O143        O  0.13472683  0.49236366  0.00309574    -0.78180
Eu144      Eu  0.04567723  0.11113231  0.50163036     2.39770
Eu145      Eu  0.04547897  0.48018321  0.99950282     2.39570
Eu146      Eu  0.04504054  0.04424416  0.06565909     2.38400
Eu147      Eu  0.04583218  0.04782054  0.43487288     2.39880
Eu148      Eu  0.10885234  0.04492240  0.00095279     2.39790
O149        O  0.07739322  0.01433759  0.46708036    -0.92600
O150        O  0.07721949  0.07719155  0.03366635    -0.91490
C151        C  0.12656807  0.12749975  0.49612326     1.02570
C152        C  0.12570464  0.46276347  0.00476004     1.01290
C153        C  0.04550831  0.12692403  0.08280759     1.00680
C154        C  0.04508851  0.13144285  0.42132144     1.02690
C155        C  0.04899190  0.46158332  0.41944074     1.01610
C156        C  0.04466400  0.46001515  0.07939284     1.00460
C157        C  0.12520072  0.05070391  0.08258211     1.00520
C158        C  0.12715996  0.04221257  0.41951905     1.03130
H159        H  0.09038958  0.99896135  0.04724711     0.30500
O160        O  0.07733077  0.01209715  0.03358957    -1.04760
H161        H  0.09058338  0.09276992  0.45503412     0.32550
O162        O  0.07749556  0.07937229  0.46831072    -1.07320
C163        C  0.03856687  0.38732589  0.15413304     0.00090
C164        C  0.03795353  0.37808982  0.12188173    -0.11780
C165        C  0.03952484  0.40082980  0.09714046     0.02330
C166        C  0.04414024  0.43394718  0.10404249     0.00010
C167        C  0.04719104  0.44287423  0.13587659    -0.11720
C168        C  0.04216654  0.42099997  0.16054446     0.02210
H169        H  0.03519936  0.35315064  0.11530599     0.15190
H170        H  0.05114428  0.46796207  0.14185668     0.15190
C171        C  0.03773707  0.43561715  0.19134999     0.36850
C172        C  0.03574060  0.38905163  0.06508198     0.36750
N173        N  0.03420846  0.44793194  0.21572602    -0.43500
N174        N  0.03256141  0.37947739  0.03947311    -0.43490
C175        C  0.04442906  0.15198126  0.10766287     0.00090
C176        C  0.06759120  0.17612610  0.10831389    -0.11780
C177        C  0.06709547  0.20023715  0.13163917     0.02330
C178        C  0.04253675  0.20093287  0.15401714     0.00010
C179        C  0.01932777  0.17699783  0.15320528    -0.11720
C180        C  0.02016444  0.15251564  0.13046002     0.02210
H181        H  0.08645124  0.17569773  0.09103486     0.15190
H182        H  0.50081764  0.17709454  0.17032074     0.15190
C183        C  0.49521777  0.12894151  0.12972814     0.36850
C184        C  0.09243530  0.22331204  0.13285858     0.36750
N185        N  0.47500503  0.11029432  0.12942104    -0.43500
N186        N  0.11290286  0.24163591  0.13397794    -0.43490
C187        C  0.05125281  0.43560600  0.39508326     0.00090
C188        C  0.05875917  0.44428835  0.36375502    -0.11780
C189        C  0.06123931  0.42116923  0.33983872     0.02330
C190        C  0.05528480  0.38829210  0.34665409     0.00010
C191        C  0.04842746  0.37932905  0.37797665    -0.11720
C192        C  0.04669604  0.40237400  0.40218827     0.02210
H193        H  0.06327626  0.46930523  0.35784043     0.15190
H194        H  0.04385383  0.35423431  0.38351347     0.15190
C195        C  0.03960106  0.39080835  0.43377502     0.36850
C196        C  0.07099780  0.43194758  0.30870495     0.36750
N197        N  0.03393019  0.38138261  0.45902125    -0.43500
N198        N  0.07872788  0.44064045  0.28377498    -0.43490
C199        C  0.05526543  0.20496605  0.35058330     0.00090
C200        C  0.02562397  0.19087852  0.35548440    -0.11780
C201        C  0.02135315  0.16764138  0.37938357     0.02330
C202        C  0.04726477  0.15754175  0.39782562     0.00010
C203        C  0.07649294  0.17237788  0.39368385    -0.11720
C204        C  0.08064324  0.19605797  0.37044175     0.02210
H205        H  0.50544063  0.19749018  0.34064167     0.15190
H206        H  0.09632305  0.16491199  0.40823711     0.15190
C207        C  0.11160373  0.20969156  0.36636520     0.36850
C208        C  0.48996644  0.15435574  0.38500432     0.36750
N209        N  0.13636731  0.22071043  0.36307905    -0.43500
N210        N  0.46476715  0.14567879  0.39076044    -0.43490
C211        C  0.39064007  0.03628152  0.15138329     0.00090
C212        C  0.41734059  0.01681961  0.15478122    -0.11780
C213        C  0.44143351  0.01754552  0.13216673     0.02330
C214        C  0.43910947  0.03784111  0.10523216     0.00010
C215        C  0.41216975  0.05693403  0.10153881    -0.11720
C216        C  0.38832196  0.05674149  0.12439043     0.02210
H217        H  0.41943828  0.00098017  0.17521659     0.15190
H218        H  0.41024181  0.07299346  0.08123716     0.15190
C219        C  0.36280391  0.07938990  0.12036486     0.36850
C220        C  0.46773546  0.99638366  0.13694700     0.36750
N221        N  0.34242285  0.09759234  0.11711012    -0.43500
N222        N  0.48866059  0.47905610  0.14130147    -0.43490
C223        C  0.19979386  0.05767822  0.15189302     0.00090
C224        C  0.17169646  0.07484872  0.15649353    -0.11780
C225        C  0.14693316  0.07291781  0.13447453     0.02330
C226        C  0.15028003  0.05394383  0.10683532     0.00010
C227        C  0.17852899  0.03738760  0.10191293    -0.11720
C228        C  0.20287829  0.03855010  0.12418507     0.02210
H229        H  0.16889572  0.08957013  0.17752963     0.15190
H230        H  0.18117377  0.02236837  0.08102325     0.15190
C231        C  0.22969794  0.01790594  0.11876682     0.36850
C232        C  0.11864642  0.09100053  0.14074755     0.36750
N233        N  0.25135875  0.50131469  0.11376910    -0.43500
N234        N  0.09603931  0.10547013  0.14613265    -0.43490
C235        C  0.15223901  0.03895440  0.39485672     0.00090
C236        C  0.14598868  0.05021592  0.36401558    -0.11780
C237        C  0.16876427  0.04899485  0.34009354     0.02330
C238        C  0.19833344  0.03400248  0.34586912     0.00010
C239        C  0.20434408  0.02215682  0.37661778    -0.11720
C240        C  0.18234595  0.02554697  0.40117697     0.02210
H241        H  0.12360039  0.06163899  0.35884536     0.15190
H242        H  0.22675296  0.01096066  0.38196514     0.15190
C243        C  0.19246328  0.01672656  0.43278912     0.36850
C244        C  0.16163524  0.06593082  0.31089297     0.36750
N245        N  0.20134149  0.01064049  0.45812031    -0.43500
N246        N  0.15579991  0.07971366  0.28766409    -0.43490
C247        C  0.39151487  0.06104709  0.34705811     0.00090
C248        C  0.38782318  0.03899349  0.37226711    -0.11780
C249        C  0.41138603  0.03447089  0.39520291     0.02330
C250        C  0.43976339  0.05196847  0.39316755     0.00010
C251        C  0.44375120  0.07367507  0.36783601    -0.11720
C252        C  0.41977384  0.07893269  0.34537421     0.02210
H253        H  0.36675313  0.02434567  0.37354775     0.15190
H254        H  0.46548610  0.08713250  0.36596801     0.15190
C255        C  0.42435093  0.10381307  0.32182960     0.36850
C256        C  0.40644135  0.51014115  0.41989060     0.36750
N257        N  0.42807632  0.12385355  0.30304699    -0.43500
N258        N  0.40237864  0.49074132  0.43924604    -0.43490
C259        C  0.20131171  0.39486436  0.01271242     0.00090
C260        C  0.17690533  0.39410014  0.03499766    -0.11780
C261        C  0.15179139  0.41586096  0.03282232     0.02330
C262        C  0.15063418  0.43834311  0.00763622     0.00010
C263        C  0.17479320  0.43877059  0.48562470    -0.11720
C264        C  0.20010991  0.41755548  0.48794945     0.02210
H265        H  0.17753517  0.37653311  0.05411580     0.15190
H266        H  0.17339155  0.45529867  0.46573923     0.15190
C267        C  0.22362495  0.41860331  0.46325007     0.36850
C268        C  0.12833610  0.41538827  0.05739663     0.36750
N269        N  0.24246383  0.41956270  0.44349144    -0.43500
N270        N  0.11000661  0.41479896  0.07759402    -0.43490
C271        C  0.15095241  0.15250256  0.49230495     0.00090
C272        C  0.14892777  0.17943440  0.01098154    -0.11780
C273        C  0.17182408  0.20348081  0.00924559     0.02330
C274        C  0.19715498  0.20116380  0.48738417     0.00010
C275        C  0.19870535  0.17373740  0.46811232    -0.11720
C276        C  0.17599667  0.14942231  0.47046879     0.02210
H277        H  0.12997438  0.18171378  0.02803345     0.15190
H278        H  0.21778282  0.17122416  0.45126737     0.15190
C279        C  0.17869959  0.12205169  0.44962294     0.36850
C280        C  0.16984306  0.22953854  0.03186439     0.36750
N281        N  0.18128531  0.10030250  0.43272258    -0.43500
N282        N  0.16819959  0.25030850  0.05007228    -0.43490
C283        C  0.39033290  0.19700249  0.50989300     0.00090
C284        C  0.41562916  0.19869005  0.03058761    -0.11780
C285        C  0.44065441  0.17680303  0.02874764     0.02330
C286        C  0.44029725  0.15229912  0.50606555     0.00010
C287        C  0.41506149  0.15074024  0.48467906    -0.11720
C288        C  0.39056704  0.17312236  0.48593884     0.02210
H289        H  0.41606582  0.21744754  0.04846719     0.15190
H290        H  0.41499068  0.13251135  0.46624414     0.15190
C291        C  0.36725544  0.17240353  0.46089123     0.36850
C292        C  0.46618114  0.17999235  0.05111527     0.36750
N293        N  0.34877247  0.17198088  0.44065733    -0.43500
N294        N  0.48658436  0.18310164  0.06905681    -0.43490
C295        C  0.39139628  0.39354401  0.48798552     0.00090
C296        C  0.41393932  0.39561651  0.46387784    -0.11780
C297        C  0.43808402  0.41849910  0.46563772     0.02330
C298        C  0.44023855  0.43892996  0.49228641     0.00010
C299        C  0.41770277  0.43791616  0.01449814    -0.11720
C300        C  0.39342387  0.41538439  0.01307565     0.02210
H301        H  0.41234422  0.37975150  0.44351112     0.15190
H302        H  0.41907818  0.45433746  0.03447653     0.15190
C303        C  0.37144536  0.41425954  0.03918242     0.36850
C304        C  0.45885722  0.42220258  0.43887321     0.36750
N305        N  0.35387028  0.41341858  0.06010300    -0.43500
N306        N  0.47491923  0.42556375  0.41699558    -0.43490
C307        C  0.36695570  0.36841285  0.48689025     0.03380
C308        C  0.37550121  0.33534333  0.98836377    -0.12770
C309        C  0.35362349  0.31350596  0.00096731     0.00880
C310        C  0.32648720  0.32678505  0.01422010    -0.11300
C311        C  0.31374076  0.35533791  0.50251982     0.03370
C312        C  0.33485316  0.37735249  0.48936776    -0.10720
H313        H  0.39869722  0.32718669  0.98156764     0.08960
H314        H  0.31278365  0.31253437  0.02986248     0.06490
H315        H  0.32705445  0.40134407  0.48292393     0.06340
C316        C  0.36579819  0.22237537  0.00936549     0.03380
C317        C  0.37475332  0.25536681  0.00739418    -0.12770
C318        C  0.35297522  0.27771531  0.99557735     0.00880
C319        C  0.32495063  0.26518147  0.98337857    -0.11300
C320        C  0.31197936  0.23687533  0.99574881     0.03370
C321        C  0.33329517  0.21413241  0.00777955    -0.10720
H322        H  0.39829985  0.26311954  0.01350804     0.08960
H323        H  0.31078671  0.28001064  0.96867853     0.06490
H324        H  0.32524176  0.19033575  0.01450367     0.06340
C325        C  0.22277521  0.22487433  0.98669261     0.03380
C326        C  0.25490977  0.21512881  0.98908856    -0.12770
C327        C  0.27695891  0.23726292  0.00098260     0.00880
C328        C  0.26479265  0.26586547  0.01321360    -0.11300
C329        C  0.23768675  0.27953616  0.00023090     0.03370
C330        C  0.21554590  0.25831766  0.98746725    -0.10720
H331        H  0.26220737  0.19087337  0.98329371     0.08960
H332        H  0.27903378  0.27997709  0.02843066     0.06490
H333        H  0.19297763  0.26742943  0.47988480     0.06340
C334        C  0.22570403  0.36957452  0.51341942     0.03380
C335        C  0.25807012  0.37788457  0.51172087    -0.12770
C336        C  0.27888526  0.35596200  0.49784906     0.00880
C337        C  0.26567019  0.32867472  0.48391015    -0.11300
C338        C  0.23805918  0.31545589  0.49612785     0.03370
C339        C  0.21666333  0.33686876  0.50982765    -0.10720
H340        H  0.26631132  0.40130533  0.51935585     0.08960
H341        H  0.27930415  0.31500443  0.46773236     0.06490
H342        H  0.19325069  0.32877878  0.51596540     0.06340
C343        C  0.36698987  0.06132944  0.82158778     0.03380
C344        C  0.33436021  0.05968881  0.82988041    -0.12770
C345        C  0.31265369  0.04796326  0.80745678     0.00880
C346        C  0.32542422  0.03549628  0.77961138    -0.11300
C347        C  0.35325242  0.04759612  0.76690654     0.03370
C348        C  0.37555863  0.05880908  0.78882437    -0.10720
H349        H  0.32649812  0.06621816  0.85344047     0.08960
H350        H  0.31101830  0.02101339  0.76503450     0.06490
H351        H  0.39917240  0.06366987  0.78073318     0.06340
C352        C  0.22402729  0.03430465  0.82175122     0.03380
C353        C  0.25618857  0.03988855  0.83057075    -0.12770
C354        C  0.27719317  0.05155891  0.80751316     0.00880
C355        C  0.26367825  0.06109786  0.77865607    -0.11300
C356        C  0.23756812  0.04497969  0.76645985     0.03370
C357        C  0.21679356  0.03171618  0.78869865    -0.10720
H358        H  0.26450865  0.03650057  0.85463739     0.08960
H359        H  0.27653993  0.07645318  0.76336308     0.06490
H360        H  0.19495062  0.02105662  0.78068922     0.06340
C361        C  0.22378929  0.05638317  0.67746733     0.03380
C362        C  0.25632365  0.05701978  0.66976286    -0.12770
C363        C  0.27794601  0.04339074  0.69102540     0.00880
C364        C  0.26562326  0.02836745  0.71802262    -0.11300
C365        C  0.23738821  0.03923385  0.73118987     0.03370
C366        C  0.21509295  0.05180878  0.70985516    -0.10720
H367        H  0.26431194  0.06645539  0.64717099     0.08960
H368        H  0.27996130  0.01206495  0.73119351     0.06490
H369        H  0.19149326  0.05676068  0.71803216     0.06340
C370        C  0.36662992  0.03726308  0.67704934     0.03380
C371        C  0.37558152  0.04060176  0.70965046    -0.12770
C372        C  0.35332140  0.05244922  0.73131940     0.00880
C373        C  0.32518155  0.06390347  0.71821778    -0.11300
C374        C  0.31261252  0.04975948  0.69098067     0.03370
C375        C  0.33407345  0.03710725  0.66922212    -0.10720
H376        H  0.39924447  0.03530332  0.71761314     0.08960
H377        H  0.31086647  0.07940827  0.73198780     0.06490
H378        H  0.32596415  0.02865420  0.64629558     0.06340
C379        C  0.05995552  0.22562352  0.82349961     0.03380
C380        C  0.06990421  0.25782967  0.82809434    -0.12770
C381        C  0.08044771  0.27606581  0.80189377     0.00880
C382        C  0.08622126  0.25878200  0.77365962    -0.11300
C383        C  0.06698187  0.23226709  0.76670099     0.03370
C384        C  0.05526550  0.21436068  0.79227470    -0.10720
H385        H  0.06781569  0.26869800  0.85134043     0.08960
H386        H  0.09768386  0.27061388  0.75390486     0.06490
H387        H  0.04212953  0.19244583  0.78794393     0.06340
C388        C  0.05532303  0.36315705  0.82152814     0.03380
C389        C  0.07030706  0.33269819  0.82559404    -0.12770
C390        C  0.07372939  0.31174864  0.79935124     0.00880
C391        C  0.06398715  0.32355422  0.76962052    -0.11300
C392        C  0.04379549  0.34965849  0.76695010     0.03370
C393        C  0.03944419  0.36975767  0.79280875    -0.10720
H394        H  0.07946052  0.32566736  0.84860812     0.08960
H395        H  0.06803204  0.31037240  0.74804397     0.06490
H396        H  0.02439711  0.39069815  0.79041158     0.06340
C397        C  0.04137678  0.22407721  0.68052361     0.03380
C398        C  0.05409472  0.21520771  0.71022436    -0.12770
C399        C  0.04884814  0.23470694  0.73654328     0.00880
C400        C  0.02960601  0.26179321  0.73312037    -0.11300
C401        C  0.02134820  0.27454714  0.70304352     0.03370
C402        C  0.02664323  0.25451334  0.67650040    -0.10720
H403        H  0.06790798  0.19340198  0.71270300     0.08960
H404        H  0.02508440  0.27486693  0.75466949     0.06490
H405        H  0.01928221  0.26217615  0.65302642     0.06340
C406        C  0.03314842  0.36226074  0.68042537     0.03380
C407        C  0.03999041  0.36987642  0.71227554    -0.12770
C408        C  0.02628348  0.35255336  0.73691588     0.00880
C409        C  0.00667447  0.32673769  0.72906013    -0.11300
C410        C  0.01332234  0.31020070  0.70072286     0.03370
C411        C  0.02313452  0.32975938  0.67484442    -0.10720
H412        H  0.05810822  0.38712465  0.71810788     0.08960
H413        H  0.99490589  0.31438966  0.74831692     0.06490
H414        H  0.02486531  0.31893867  0.65169327     0.06340
O415        O  0.49430438  0.45408507  0.99340493    -0.79880
O416        O  0.49413314  0.13715657  0.00341573    -0.81440
O417        O  0.45571954  0.04224090  0.55156432    -0.78460
O418        O  0.45618660  0.04788775  0.94708056    -0.76840
O419        O  0.49392941  0.04789835  0.90840789    -0.78630
O420        O  0.49327513  0.04100417  0.59063913    -0.79560
O421        O  0.45623327  0.09803481  0.00141814    -0.80890
O422        O  0.45632582  0.49313753  0.99616075    -0.81180
Eu423      Eu  0.48192409  0.04521313  0.99950079     2.39200
O424        O  0.01405977  0.07800394  0.96833740    -0.88690
O425        O  0.01345499  0.01217381  0.53117960    -0.92290
C426        C  0.46541976  0.46365035  0.99350797     1.02400
C427        C  0.46522514  0.12764319  0.00335760     1.02220
C428        C  0.46441375  0.04050040  0.58098252     1.02160
C429        C  0.46499324  0.04873421  0.91774145     1.00020
H430        H  0.00010629  0.09044088  0.54646293     0.29770
O431        O  0.01335651  0.07761587  0.53286170    -1.01080
H432        H  0.00086563  0.99944288  0.95407143     0.29800
O433        O  0.01378923  0.01259693  0.96776138    -1.03620
O434        O  0.09768423  0.13619563  0.99857958    -0.80840
O435        O  0.09690404  0.45305997  0.50433957    -0.80380
O436        O  0.04327167  0.09676676  0.59163445    -0.78820
O437        O  0.04554811  0.09963656  0.91080928    -0.82160
O438        O  0.04694777  0.49164372  0.90939216    -0.80010
O439        O  0.04572556  0.48960092  0.58929501    -0.78660
O440        O  0.13392555  0.04971240  0.55301249    -0.80180
O441        O  0.13537739  0.04078124  0.94938910    -0.82110
O442        O  0.09615944  0.04824057  0.59161093    -0.78850
O443        O  0.09808171  0.04284913  0.91031398    -0.81410
O444        O  0.04792081  0.13657003  0.55411443    -0.77260
O445        O  0.04375393  0.45155809  0.55043654    -0.77290
O446        O  0.04938634  0.45351426  0.94843560    -0.76930
O447        O  0.04454527  0.13785635  0.95011037    -0.80430
O448        O  0.13558268  0.09786388  0.49629131    -0.79860
O449        O  0.13470534  0.49233240  0.50354263    -0.78180
Eu450      Eu  0.04564516  0.11026100  0.00147647     2.39770
Eu451      Eu  0.04547766  0.47990925  0.49984691     2.39570
Eu452      Eu  0.04491755  0.04407863  0.56471897     2.38400
Eu453      Eu  0.04564226  0.04536810  0.93554197     2.39880
Eu454      Eu  0.10899069  0.04582989  0.50045813     2.39790
O455        O  0.07710611  0.01251453  0.96849385    -0.92600
O456        O  0.07717828  0.07759715  0.53344845    -0.91490
C457        C  0.12649339  0.12671241  0.99587441     1.02570
C458        C  0.12572689  0.46271629  0.50520482     1.01290
C459        C  0.04547502  0.12660705  0.58305415     1.00680
C460        C  0.04507916  0.12910058  0.92078197     1.02690
C461        C  0.04893552  0.46202068  0.91906977     1.01610
C462        C  0.04463338  0.45993434  0.57979341     1.00460
C463        C  0.12497527  0.05043652  0.58229787     1.00520
C464        C  0.12696102  0.04058612  0.91992016     1.03130
H465        H  0.09030003  0.99913693  0.54564398     0.30500
O466        O  0.07726590  0.01247781  0.53216085    -1.04760
H467        H  0.09027255  0.09098360  0.95500717     0.32550
O468        O  0.07717759  0.07777218  0.96845786    -1.07320
C469        C  0.03870084  0.38712082  0.65448600     0.00090
C470        C  0.03803107  0.37794866  0.62221992    -0.11780
C471        C  0.03953784  0.40073105  0.59751083     0.02330
C472        C  0.04413686  0.43384964  0.60444484     0.00010
C473        C  0.04721437  0.44273045  0.63629003    -0.11720
C474        C  0.04227136  0.42079562  0.66093965     0.02210
H475        H  0.03527174  0.35302008  0.61560785     0.15190
H476        H  0.05112440  0.46782041  0.64229135     0.15190
C477        C  0.03788160  0.43534839  0.69177817     0.36850
C478        C  0.03569202  0.38898705  0.56544564     0.36750
N479        N  0.03437340  0.44761965  0.71617863    -0.43500
N480        N  0.03246402  0.37944684  0.53983002    -0.43490
C481        C  0.04449063  0.15142154  0.60813941     0.00090
C482        C  0.06763025  0.17559410  0.60880607    -0.11780
C483        C  0.06706382  0.19974778  0.63207260     0.02330
C484        C  0.04246652  0.20044840  0.65439756     0.00010
C485        C  0.01930082  0.17645947  0.65360582    -0.11720
C486        C  0.02019195  0.15194832  0.63088669     0.02210
H487        H  0.08649156  0.17520053  0.59152652     0.15190
H488        H  0.50894709  0.17983310  0.67041099     0.15190
C489        C  0.50044517  0.13099209  0.63127476     0.36850
C490        C  0.09234975  0.22288927  0.63325822     0.36750
N491        N  0.47972619  0.11294701  0.63207474    -0.43500
N492        N  0.11277114  0.24126955  0.63434317    -0.43490
C493        C  0.05119187  0.43588812  0.89486027     0.00090
C494        C  0.05881972  0.44430791  0.86350403    -0.11780
C495        C  0.06136899  0.42097312  0.83978299     0.02330
C496        C  0.05530216  0.38814732  0.84682142     0.00010
C497        C  0.04834269  0.37945762  0.87818204    -0.11720
C498        C  0.04659095  0.40269838  0.90220187     0.02210
H499        H  0.06339637  0.46927502  0.85743158     0.15190
H500        H  0.04368366  0.35442111  0.88390075     0.15190
C501        C  0.03942549  0.39134580  0.93384879     0.36850
C502        C  0.07130992  0.43148380  0.80862120     0.36750
N503        N  0.03370526  0.38207744  0.95913950    -0.43500
N504        N  0.07918749  0.43996936  0.78366995    -0.43490
C505        C  0.05488345  0.20361029  0.85073837     0.00090
C506        C  0.02526396  0.18949350  0.85572127    -0.11780
C507        C  0.02118579  0.16576207  0.87920627     0.02330
C508        C  0.04729706  0.15503233  0.89702308     0.00010
C509        C  0.07654116  0.16984160  0.89276224    -0.11720
C510        C  0.08047281  0.19410652  0.87003805     0.02210
H511        H  0.50218591  0.19416596  0.84050830     0.15190
H512        H  0.09650127  0.16206999  0.90697143     0.15190
C513        C  0.11137642  0.20787965  0.86598381     0.36850
C514        C  0.48883921  0.15227731  0.88661847     0.36750
N515        N  0.13608600  0.21903643  0.86273194    -0.43500
N516        N  0.46393806  0.14387106  0.89388196    -0.43490
C517        C  0.39063729  0.03651467  0.65136275     0.00090
C518        C  0.41739615  0.01712742  0.65478879    -0.11780
C519        C  0.44155216  0.01795375  0.63222979     0.02330
C520        C  0.43925764  0.03829088  0.60532078     0.00010
C521        C  0.41227116  0.05731782  0.60160297    -0.11720
C522        C  0.38834784  0.05700916  0.62439129     0.02210
H523        H  0.41948685  0.00125461  0.67519921     0.15190
H524        H  0.41033882  0.07338295  0.58130650     0.15190
C525        C  0.36276280  0.07956662  0.62031991     0.36850
C526        C  0.46788038  0.99682600  0.63701828     0.36750
N527        N  0.34232743  0.09769827  0.61702887    -0.43500
N528        N  0.48980666  0.47933366  0.64212602    -0.43490
C529        C  0.19947390  0.05723007  0.65187684     0.00090
C530        C  0.17129975  0.07427994  0.65648681    -0.11780
C531        C  0.14655364  0.07233884  0.63442705     0.02330
C532        C  0.14997239  0.05348898  0.60671184     0.00010
C533        C  0.17827502  0.03701741  0.60179704    -0.11720
C534        C  0.20260883  0.03817707  0.62411486     0.02210
H535        H  0.16843303  0.08895459  0.67754407     0.15190
H536        H  0.18099093  0.02209854  0.58084737     0.15190
C537        C  0.22949127  0.01763346  0.61865613     0.36850
C538        C  0.11821773  0.09032372  0.64072513     0.36750
N539        N  0.25102337  0.50106598  0.61400320    -0.43500
N540        N  0.09557736  0.10471963  0.64615336    -0.43490
C541        C  0.15207204  0.03772705  0.89520504     0.00090
C542        C  0.14569865  0.04909516  0.86441955    -0.11780
C543        C  0.16851288  0.04835024  0.84048960     0.02330
C544        C  0.19826575  0.03369161  0.84615491     0.00010
C545        C  0.20441356  0.02177862  0.87686265    -0.11720
C546        C  0.18236683  0.02475118  0.90145098     0.02210
H547        H  0.12317257  0.06026542  0.85932494     0.15190
H548        H  0.22695296  0.01084686  0.88216790     0.15190
C549        C  0.19261152  0.01599698  0.93303380     0.36850
C550        C  0.16121691  0.06544298  0.81142018     0.36750
N551        N  0.20161689  0.00999858  0.95833826    -0.43500
N552        N  0.15525839  0.07935807  0.78829941    -0.43490
C553        C  0.39164557  0.06080499  0.84705490     0.00090
C554        C  0.38790120  0.03883761  0.87232933    -0.11780
C555        C  0.41148397  0.03425476  0.89524343     0.02330
C556        C  0.43995824  0.05158969  0.89312991     0.00010
C557        C  0.44401657  0.07318169  0.86771055    -0.11720
C558        C  0.42001219  0.07851989  0.84528000     0.02210
H559        H  0.36675747  0.02431049  0.87369355     0.15190
H560        H  0.46580846  0.08653564  0.86577225     0.15190
C561        C  0.42467122  0.10334956  0.82170073     0.36850
C562        C  0.40701247  0.51070786  0.91928606     0.36750
N563        N  0.42846809  0.12335405  0.80289556    -0.43500
N564        N  0.40320566  0.49114204  0.93853310    -0.43490
C565        C  0.20135171  0.39488537  0.51308726     0.00090
C566        C  0.17695053  0.39407278  0.53537245    -0.11780
C567        C  0.15183205  0.41582151  0.53322542     0.02330
C568        C  0.15068292  0.43834534  0.50807852     0.00010
C569        C  0.17474884  0.43871892  0.98518347    -0.11720
C570        C  0.20007053  0.41750540  0.98754664     0.02210
H571        H  0.17758296  0.37647044  0.55445910     0.15190
H572        H  0.17335590  0.45521785  0.96527457     0.15190
C573        C  0.22360321  0.41853779  0.96286500     0.36850
C574        C  0.12835353  0.41528133  0.55777624     0.36750
N575        N  0.24246160  0.41948766  0.94312506    -0.43500
N576        N  0.11000002  0.41463667  0.57794982    -0.43490
C577        C  0.15088792  0.15180530  0.99213320     0.00090
C578        C  0.14913376  0.18009029  0.51119777    -0.11780
C579        C  0.17210544  0.20402118  0.50940127     0.02330
C580        C  0.19698296  0.20073153  0.98733916     0.00010
C581        C  0.19867979  0.17325010  0.96811262    -0.11720
C582        C  0.17603438  0.14882182  0.97040833     0.02210
H583        H  0.13025321  0.18241299  0.52832708     0.15190
H584        H  0.21781543  0.17078223  0.95133157     0.15190
C585        C  0.17886458  0.12143808  0.94959440     0.36850
C586        C  0.17031588  0.23006382  0.53205596     0.36750
N587        N  0.18149411  0.09966215  0.93273149    -0.43500
N588        N  0.16882225  0.25082342  0.55028855    -0.43490
C589        C  0.39024783  0.19691545  0.00929824     0.00090
C590        C  0.41557906  0.19851173  0.53138824    -0.11780
C591        C  0.44057774  0.17657161  0.52951428     0.02330
C592        C  0.44022369  0.15220325  0.00562840     0.00010
C593        C  0.41483377  0.15036316  0.98444764    -0.11720
C594        C  0.39034697  0.17276970  0.98560080     0.02210
H595        H  0.41589737  0.21705276  0.54948650     0.15190
H596        H  0.41465283  0.13192064  0.96622175     0.15190
C597        C  0.36692910  0.17181751  0.96066547     0.36850
C598        C  0.46586211  0.17920588  0.55225778     0.36750
N599        N  0.34836461  0.17122222  0.94051294    -0.43500
N600        N  0.48609364  0.18169250  0.57050272    -0.43490
C601        C  0.39162516  0.39366018  0.98725847     0.00090
C602        C  0.41445182  0.39505226  0.96334703    -0.11780
C603        C  0.43866758  0.41793126  0.96472842     0.02330
C604        C  0.44060803  0.43916969  0.99078315     0.00010
C605        C  0.41759676  0.43703829  0.51618355    -0.11720
C606        C  0.39333632  0.41455736  0.51435372     0.02210
H607        H  0.41303776  0.37863491  0.94339913     0.15190
H608        H  0.41913883  0.45293825  0.53655795     0.15190
C609        C  0.37146529  0.41279128  0.54052137     0.36850
C610        C  0.45975666  0.42075953  0.93811980     0.36750
N611        N  0.35396010  0.41145644  0.56147779    -0.43500
N612        N  0.47610081  0.42341410  0.91636404    -0.43490
C613        C  0.36661447  0.86849784  0.98694412     0.03380
C614        C  0.37530126  0.83532083  0.48860331    -0.12770
C615        C  0.35344991  0.81347254  0.50121074     0.00880
C616        C  0.32629574  0.82672993  0.51445760    -0.11300
C617        C  0.31341015  0.85525450  0.00264200     0.03370
C618        C  0.33449528  0.87739900  0.98959945    -0.10720
H619        H  0.39851323  0.82719807  0.48182110     0.08960
H620        H  0.31260351  0.81246972  0.53009975     0.06490
H621        H  0.32665747  0.90141768  0.98330933     0.06340
C622        C  0.36563301  0.72234991  0.50957969     0.03380
C623        C  0.37459183  0.75534300  0.50763834    -0.12770
C624        C  0.35283715  0.77769652  0.49577898     0.00880
C625        C  0.32484576  0.76517643  0.48350511    -0.11300
C626        C  0.31183762  0.73689476  0.49586861     0.03370
C627        C  0.33312406  0.71412698  0.50792550    -0.10720
H628        H  0.39812120  0.76309729  0.51381721     0.08960
H629        H  0.31072949  0.78000354  0.46875108     0.06490
H630        H  0.32504300  0.69033718  0.51463825     0.06340
C631        C  0.22268127  0.72495864  0.48656376     0.03380
C632        C  0.25480252  0.71521527  0.48902475    -0.12770
C633        C  0.27680859  0.73731490  0.50102956     0.00880
C634        C  0.26460534  0.76590314  0.51328023    -0.11300
C635        C  0.23749472  0.77959164  0.50029136     0.03370
C636        C  0.21541683  0.75838911  0.48740359    -0.10720
H637        H  0.26211982  0.69097214  0.48320386     0.08960
H638        H  0.27880517  0.77998640  0.52855790     0.06490
H639        H  0.19255980  0.76715396  0.97995479     0.06340
C640        C  0.22534996  0.86926762  0.01391041     0.03380
C641        C  0.25771971  0.87759271  0.01221866    -0.12770
C642        C  0.27851860  0.85581702  0.99810610     0.00880
C643        C  0.26528869  0.82857033  0.98407029    -0.11300
C644        C  0.23767966  0.81526145  0.99624137     0.03370
C645        C  0.21631110  0.83658317  0.01011354    -0.10720
H646        H  0.26596617  0.90096422  0.01999438     0.08960
H647        H  0.27891915  0.81497797  0.96782902     0.06490
H648        H  0.19290878  0.82844137  0.01622164     0.06340
C649        C  0.36714961  0.56117206  0.32167595     0.03380
C650        C  0.33449994  0.55951999  0.32988396    -0.12770
C651        C  0.31283616  0.54788929  0.30736987     0.00880
C652        C  0.32565661  0.53548805  0.27952484    -0.11300
C653        C  0.35349976  0.54761726  0.26689614     0.03370
C654        C  0.37578123  0.55875361  0.28890605    -0.10720
H655        H  0.32658487  0.56598597  0.35344299     0.08960
H656        H  0.31127799  0.52104434  0.26488373     0.06490
H657        H  0.39941082  0.56364966  0.28088175     0.06340
C658        C  0.22421993  0.53418184  0.32155761     0.03380
C659        C  0.25636413  0.53978034  0.33040763    -0.12770
C660        C  0.27737583  0.55146054  0.30737225     0.00880
C661        C  0.26387716  0.56100169  0.27850346    -0.11300
C662        C  0.23775961  0.54490022  0.26629074     0.03370
C663        C  0.21699386  0.53160586  0.28850859    -0.10720
H664        H  0.26466295  0.53639840  0.35448307     0.08960
H665        H  0.27675703  0.57633520  0.26320810     0.06490
H666        H  0.19515269  0.52094899  0.28048913     0.06340
C667        C  0.22402756  0.55627397  0.17727664     0.03380
C668        C  0.25657806  0.55698621  0.16963906    -0.12770
C669        C  0.27819064  0.54341987  0.19095759     0.00880
C670        C  0.26585318  0.52833033  0.21789791    -0.11300
C671        C  0.23759319  0.53914835  0.23102591     0.03370
C672        C  0.21529740  0.55168001  0.20966022    -0.10720
H673        H  0.26459397  0.56645259  0.14707010     0.08960
H674        H  0.28019337  0.51203951  0.23108212     0.06490
H675        H  0.19168276  0.55658939  0.21781589     0.06340
C676        C  0.36682217  0.53715772  0.17704018     0.03380
C677        C  0.37581672  0.54057105  0.20962491    -0.12770
C678        C  0.35359400  0.55250806  0.23129565     0.00880
C679        C  0.32544418  0.56396368  0.21817898    -0.11300
C680        C  0.31285039  0.54978926  0.19095356     0.03370
C681        C  0.33427246  0.53702691  0.16924233    -0.10720
H682        H  0.39947662  0.53523645  0.21757258     0.08960
H683        H  0.31115532  0.57952042  0.23192687     0.06490
H684        H  0.32613433  0.52851000  0.14634832     0.06340
C685        C  0.05492015  0.72434582  0.32132998     0.03380
C686        C  0.05643727  0.75737018  0.32901845    -0.12770
C687        C  0.06122842  0.78010099  0.30490138     0.00880
C688        C  0.06781316  0.76906407  0.27420398    -0.11300
C689        C  0.05942644  0.73765307  0.26522475     0.03370
C690        C  0.05414864  0.71474030  0.28916043    -0.10720
H691        H  0.05204743  0.76525628  0.35311804     0.08960
H692        H  0.07122923  0.78691160  0.25560060     0.06490
H693        H  0.04810508  0.69020325  0.28293224     0.06340
C694        C  0.05214245  0.87053096  0.31601664     0.03380
C695        C  0.06276273  0.83879866  0.32209154    -0.12770
C696        C  0.04816378  0.81321301  0.30672084     0.00880
C697        C  0.02273407  0.81998276  0.28685566    -0.11300
C698        C  0.01979490  0.85014872  0.27198878     0.03370
C699        C  0.03337564  0.87640959  0.28844272    -0.10720
H700        H  0.08065178  0.83406359  0.33988538     0.08960
H701        H  0.00869544  0.80003148  0.27977060     0.06490
H702        H  0.02813273  0.90076901  0.28094997     0.06340
C703        C  0.04994138  0.72694372  0.17643189     0.03380
C704        C  0.05880712  0.71837022  0.20768873    -0.12770
C705        C  0.04528864  0.73491034  0.23299717     0.00880
C706        C  0.02156772  0.75703389  0.22612387    -0.11300
C707        C  0.02117641  0.77347331  0.19693842     0.03370
C708        C  0.03420090  0.75667666  0.17095918    -0.10720
H709        H  0.07467018  0.69842991  0.21212075     0.08960
H710        H  0.00802650  0.76497419  0.24580024     0.06490
H711        H  0.03086242  0.76553665  0.14696901     0.06340
C712        C  0.02860832  0.86496203  0.18386229     0.03380
C713        C  0.02136558  0.87377724  0.21576644    -0.12770
C714        C  0.00961982  0.85076860  0.23728860     0.00880
C715        C  0.99797802  0.82223022  0.22370944    -0.11300
C716        C  0.01326742  0.80915041  0.19708119     0.03370
C717        C  0.02798395  0.83139662  0.17653169    -0.10720
H718        H  0.02442145  0.89784033  0.22443492     0.08960
H719        H  0.98216933  0.80742827  0.23739951     0.06490
H720        H  0.03942368  0.82264534  0.15532640     0.06340
O721        O  0.49381825  0.95387114  0.49493342    -0.79880
O722        O  0.49400247  0.63706567  0.50415624    -0.81440
O723        O  0.45563104  0.54200223  0.05125025    -0.78460
O724        O  0.45610168  0.54784545  0.44761178    -0.76840
O725        O  0.49381935  0.54806061  0.40891812    -0.78630
O726        O  0.49311497  0.54022503  0.09035994    -0.79560
O727        O  0.45611187  0.59795024  0.50202036    -0.80890
O728        O  0.45589609  0.99303967  0.49677832    -0.81180
Eu729      Eu  0.48192401  0.54520193  0.50007406     2.39200
O730        O  0.01416513  0.57785773  0.46770157    -0.88690
O731        O  0.01321250  0.51207148  0.03187673    -0.92290
C732        C  0.46496882  0.96351867  0.49459298     1.02400
C733        C  0.46508964  0.62755871  0.50400194     1.02220
C734        C  0.46427604  0.53989303  0.08066215     1.02160
C735        C  0.46488528  0.54879042  0.41825685     1.00020
H736        H  0.00046798  0.59069114  0.04620443     0.29770
O737        O  0.01349641  0.57755986  0.03266486    -1.01080
H738        H  0.00070734  0.49938765  0.45331960     0.29800
O739        O  0.01363281  0.51253202  0.46701761    -1.03620
O740        O  0.09770255  0.63624802  0.49799709    -0.80840
O741        O  0.09667396  0.95288220  0.00514112    -0.80380
O742        O  0.04546283  0.59736244  0.09072015    -0.78820
O743        O  0.04579191  0.59867709  0.40981596    -0.82160
O744        O  0.04862514  0.99556519  0.40757686    -0.80010
O745        O  0.04572523  0.99049996  0.09127650    -0.78660
O746        O  0.13403567  0.54937155  0.05271475    -0.80180
O747        O  0.13554669  0.54085544  0.44904257    -0.82110
O748        O  0.09641172  0.54817270  0.09146962    -0.78850
O749        O  0.09825868  0.54257411  0.40994175    -0.81410
O750        O  0.04997603  0.63641814  0.05242553    -0.77260
O751        O  0.04333618  0.95228835  0.05253086    -0.77290
O752        O  0.05130256  0.95658639  0.44578529    -0.76930
O753        O  0.04471708  0.63728900  0.44874852    -0.80430
O754        O  0.13560913  0.59709133  0.99563069    -0.79860
O755        O  0.13446038  0.99216225  0.00400597    -0.78180
Eu756      Eu  0.04571251  0.61028739  0.50069471     2.39770
Eu757      Eu  0.04538764  0.97979971  0.00086403     2.39570
Eu758      Eu  0.04507877  0.54417069  0.06479766     2.38400
Eu759      Eu  0.04577188  0.54507966  0.43502872     2.39880
Eu760      Eu  0.10896960  0.54501398  0.00017215     2.39790
O761        O  0.07749582  0.51243018  0.46777673    -0.92600
O762        O  0.07713839  0.57707662  0.03270919    -0.91490
C763        C  0.12651739  0.62675543  0.49545507     1.02570
C764        C  0.12548397  0.96254405  0.00583033     1.01290
C765        C  0.04834062  0.62696942  0.08156912     1.00680
C766        C  0.04524523  0.62817168  0.41948374     1.02690
C767        C  0.05125842  0.96588691  0.41655985     1.01610
C768        C  0.04420199  0.96083765  0.08195404     1.00460
C769        C  0.12519446  0.55028374  0.08204398     1.00520
C770        C  0.12713614  0.54048799  0.41958134     1.03130
H771        H  0.09041402  0.49893930  0.04613960     0.30500
O772        O  0.07735376  0.51217109  0.03257631    -1.04760
H773        H  0.09039316  0.59083381  0.45440926     0.32550
O774        O  0.07726818  0.57766211  0.46786844    -1.07320
C775        C  0.03618390  0.88941118  0.15798966     0.00090
C776        C  0.02859003  0.88143849  0.12624291    -0.11780
C777        C  0.03247387  0.90326234  0.10101430     0.02330
C778        C  0.04304627  0.93502682  0.10696879     0.00010
C779        C  0.05202861  0.94271984  0.13812483    -0.11720
C780        C  0.04899328  0.92066641  0.16327746     0.02210
H781        H  0.01850341  0.85815021  0.12078619     0.15190
H782        H  0.06130334  0.96653276  0.14310561     0.15190
C783        C  0.05979026  0.93184793  0.19367529     0.36850
C784        C  0.02505833  0.89200986  0.06941822     0.36750
N785        N  0.06827852  0.94227752  0.21763217    -0.43500
N786        N  0.01950661  0.88270834  0.04411683    -0.43490
C787        C  0.04931194  0.65215701  0.10623614     0.00090
C788        C  0.07319964  0.67561436  0.10546683    -0.11780
C789        C  0.07432935  0.70023387  0.12827394     0.02330
C790        C  0.05079999  0.70196059  0.15161295     0.00010
C791        C  0.02704456  0.67853466  0.15235239    -0.11720
C792        C  0.02619548  0.65365764  0.13010540     0.02210
H793        H  0.09122131  0.67438123  0.08733607     0.15190
H794        H  0.50052682  0.67680536  0.17099880     0.15190
C795        C  0.49507154  0.62853844  0.13047949     0.36850
C796        C  0.10010974  0.72279369  0.12789203     0.36750
N797        N  0.47483806  0.60991682  0.13006623    -0.43500
N798        N  0.12095165  0.74070178  0.12774893    -0.43490
C799        C  0.05425223  0.94073652  0.39152890     0.00090
C800        C  0.06234882  0.95006930  0.36040913    -0.11780
C801        C  0.06388159  0.92754386  0.33568312     0.02330
C802        C  0.05595112  0.89511194  0.34143831     0.00010
C803        C  0.04927087  0.88555560  0.37276252    -0.11720
C804        C  0.04913267  0.90755755  0.39774902     0.02210
H805        H  0.06801614  0.97502937  0.35535927     0.15190
H806        H  0.04334496  0.86064263  0.37779743     0.15190
C807        C  0.04293222  0.89494106  0.42916962     0.36850
C808        C  0.07592360  0.93801155  0.30548168     0.36750
N809        N  0.03806268  0.88465543  0.45426799    -0.43500
N810        N  0.08652380  0.94689766  0.28178506    -0.43490
C811        C  0.05216240  0.70019863  0.34693037     0.00090
C812        C  0.02279223  0.68650944  0.35378615    -0.11780
C813        C  0.01978443  0.66363187  0.37817221     0.02330
C814        C  0.04666117  0.65350226  0.39513476     0.00010
C815        C  0.07584198  0.66762484  0.38866906    -0.11720
C816        C  0.07870306  0.69111958  0.36499468     0.02210
H817        H  0.50540235  0.69706633  0.34131521     0.15190
H818        H  0.09642921  0.66020296  0.40211429     0.15190
C819        C  0.10910826  0.70550820  0.35949485     0.36850
C820        C  0.48995569  0.65396196  0.38570524     0.36750
N821        N  0.13341568  0.71720340  0.35517301    -0.43500
N822        N  0.46476546  0.64523011  0.39142166    -0.43490
C823        C  0.39075095  0.53626326  0.15129548     0.00090
C824        C  0.41745839  0.51680176  0.15468483    -0.11780
C825        C  0.44150143  0.51743439  0.13199973     0.02330
C826        C  0.43911369  0.53762059  0.10498309     0.00010
C827        C  0.41216846  0.55671429  0.10130801    -0.11720
C828        C  0.38838453  0.55662819  0.12423478     0.02210
H829        H  0.41960527  0.50103838  0.17517153     0.15190
H830        H  0.41019936  0.57272129  0.08097024     0.15190
C831        C  0.36289147  0.57930725  0.12021477     0.36850
C832        C  0.46784307  0.49632699  0.13682454     0.36750
N833        N  0.34253401  0.59753832  0.11696497    -0.43500
N834        N  0.48850744  0.97904895  0.14138608    -0.43490
C835        C  0.19974155  0.55715670  0.15163970     0.00090
C836        C  0.17150536  0.57407256  0.15630180    -0.11780
C837        C  0.14676388  0.57211556  0.13424142     0.02330
C838        C  0.15025851  0.55344201  0.10640766     0.00010
C839        C  0.17864308  0.53713271  0.10142277    -0.11720
C840        C  0.20295666  0.53825782  0.12378125     0.02210
H841        H  0.16856434  0.58862604  0.17743020     0.15190
H842        H  0.18142583  0.52231777  0.08041157     0.15190
C843        C  0.22988549  0.51779339  0.11827820     0.36850
C844        C  0.11831609  0.58982436  0.14075776     0.36750
N845        N  0.25108391  0.00129130  0.11431767    -0.43500
N846        N  0.09559566  0.60397795  0.14644454    -0.43490
C847        C  0.15225330  0.53763489  0.39491391     0.00090
C848        C  0.14591346  0.54906076  0.36414957    -0.11780
C849        C  0.16873833  0.54830656  0.34024624     0.02330
C850        C  0.19845566  0.53358427  0.34592889     0.00010
C851        C  0.20457097  0.52162032  0.37662231    -0.11720
C852        C  0.18251138  0.52459655  0.40118794     0.02210
H853        H  0.12340862  0.56027899  0.35905694     0.15190
H854        H  0.22708735  0.51063785  0.38192809     0.15190
C855        C  0.19267795  0.51573128  0.43276940     0.36850
C856        C  0.16149026  0.56544731  0.31119160     0.36750
N857        N  0.20160203  0.50962432  0.45807887    -0.43500
N858        N  0.15556297  0.57939993  0.28808480    -0.43490
C859        C  0.39173525  0.56066587  0.34723992     0.00090
C860        C  0.38795246  0.53868974  0.37250992    -0.11780
C861        C  0.41144125  0.53420372  0.39555899     0.02330
C862        C  0.43986040  0.55165194  0.39360221     0.00010
C863        C  0.44394281  0.57327568  0.36820515    -0.11720
C864        C  0.42003869  0.57850004  0.34562716     0.02210
H865        H  0.36685356  0.52408500  0.37376949     0.15190
H866        H  0.46569452  0.58671107  0.36637759     0.15190
C867        C  0.42472437  0.60333277  0.32205685     0.36850
C868        C  0.40650797  0.01032411  0.41948188     0.36750
N869        N  0.42853420  0.62334161  0.30325874    -0.43500
N870        N  0.40253670  0.99085813  0.43879237    -0.43490
C871        C  0.20099541  0.89459711  0.01371204     0.00090
C872        C  0.17620037  0.89332426  0.03556652    -0.11780
C873        C  0.15102942  0.91502038  0.03335059     0.02330
C874        C  0.15041383  0.93816148  0.00872679     0.00010
C875        C  0.17503267  0.93927839  0.48501194    -0.11720
C876        C  0.20019171  0.91784760  0.48738438     0.02210
H877        H  0.17647450  0.87529031  0.05426221     0.15190
H878        H  0.17380491  0.95582998  0.46513576     0.15190
C879        C  0.22379445  0.91875730  0.46276916     0.36850
C880        C  0.12665108  0.91348072  0.05700972     0.36750
N881        N  0.24271161  0.91960323  0.44308271    -0.43500
N882        N  0.10733789  0.91197955  0.07622553    -0.43490
C883        C  0.15090720  0.65183522  0.49182105     0.00090
C884        C  0.14888955  0.67934439  0.01046515    -0.11780
C885        C  0.17176160  0.70340187  0.00886734     0.02330
C886        C  0.19692598  0.70080132  0.48714444     0.00010
C887        C  0.19867162  0.67336423  0.46786220    -0.11720
C888        C  0.17606353  0.64890472  0.47010860     0.02210
H889        H  0.12991176  0.68152267  0.02750486     0.15190
H890        H  0.21781771  0.67095417  0.45108484     0.15190
C891        C  0.17893790  0.62154220  0.44926967     0.36850
C892        C  0.16975192  0.72933615  0.03162501     0.36750
N893        N  0.18159456  0.59977607  0.43239764    -0.43500
N894        N  0.16808233  0.75000107  0.04994648    -0.43490
C895        C  0.39008806  0.69687797  0.50962043     0.00090
C896        C  0.41520460  0.69883259  0.03131664    -0.11780
C897        C  0.44026472  0.67698536  0.02958259     0.02330
C898        C  0.44006958  0.65212520  0.50617619     0.00010
C899        C  0.41471425  0.65023959  0.48495125    -0.11720
C900        C  0.39023168  0.67266476  0.48598930     0.02210
H901        H  0.41550999  0.71755664  0.04923238     0.15190
H902        H  0.41456203  0.63174900  0.46677292     0.15190
C903        C  0.36687418  0.67166332  0.46099792     0.36850
C904        C  0.46565872  0.68011710  0.05212198     0.36750
N905        N  0.34836174  0.67102980  0.44079762    -0.43500
N906        N  0.48596967  0.68312976  0.07019019    -0.43490
C907        C  0.39133891  0.89359436  0.48776959     0.00090
C908        C  0.41384699  0.89556106  0.46360837    -0.11780
C909        C  0.43799164  0.91848026  0.46518330     0.02330
C910        C  0.44020431  0.93908688  0.49170231     0.00010
C911        C  0.41749149  0.93720896  0.01583892    -0.11720
C912        C  0.39315898  0.91477545  0.01414067     0.02210
H913        H  0.41221726  0.87958975  0.44332602     0.15190
H914        H  0.41908325  0.95320418  0.03613606     0.15190
C915        C  0.37134369  0.91316238  0.04036279     0.36850
C916        C  0.45868895  0.92204714  0.43834090     0.36750
N917        N  0.35388695  0.91193817  0.06136671    -0.43500
N918        N  0.47469290  0.92529992  0.41640333    -0.43490
C919        C  0.36685213  0.86844776  0.48682987     0.03380
C920        C  0.37508401  0.83538084  0.98865136    -0.12770
C921        C  0.35329352  0.81351164  0.00131703     0.00880
C922        C  0.32617358  0.82670979  0.01467916    -0.11300
C923        C  0.31358338  0.85526671  0.50232935     0.03370
C924        C  0.33473260  0.87738004  0.48935832    -0.10720
H925        H  0.39827775  0.82727630  0.98178442     0.08960
H926        H  0.31252281  0.81239012  0.03031581     0.06490
H927        H  0.32693615  0.90139831  0.48301323     0.06340
C928        C  0.36550455  0.72248605  0.00979677     0.03380
C929        C  0.37444685  0.75546342  0.00779521    -0.12770
C930        C  0.35270914  0.77776416  0.99583671     0.00880
C931        C  0.32473262  0.76522101  0.98353778    -0.11300
C932        C  0.31176194  0.73690296  0.99588036     0.03370
C933        C  0.33303181  0.71420725  0.00805725    -0.10720
H934        H  0.39795730  0.76324527  0.01401740     0.08960
H935        H  0.31056251  0.78007713  0.96884804     0.06490
H936        H  0.32496823  0.69041468  0.01478449     0.06340
C937        C  0.22267830  0.72490450  0.98644697     0.03380
C938        C  0.25479284  0.71516672  0.98894035    -0.12770
C939        C  0.27675862  0.73725035  0.00104308     0.00880
C940        C  0.26453872  0.76579020  0.01335384    -0.11300
C941        C  0.23745624  0.77947588  0.00033906     0.03370
C942        C  0.21540597  0.75831842  0.98735279    -0.10720
H943        H  0.26213360  0.69094412  0.98306728     0.08960
H944        H  0.27872996  0.77986599  0.02865507     0.06490
H945        H  0.19256411  0.76720890  0.48000979     0.06340
C946        C  0.22547002  0.86968308  0.51295548     0.03380
C947        C  0.25787105  0.87790363  0.51135968    -0.12770
C948        C  0.27869864  0.85587217  0.49767962     0.00880
C949        C  0.26545677  0.82854081  0.48383800    -0.11300
C950        C  0.23778849  0.81539280  0.49601456     0.03370
C951        C  0.21637061  0.83694952  0.50951071    -0.10720
H952        H  0.26613298  0.90134612  0.51890748     0.08960
H953        H  0.27908030  0.81481192  0.46772373     0.06490
H954        H  0.19291575  0.82895107  0.51559555     0.06340
C955        C  0.36691331  0.56165555  0.82150293     0.03380
C956        C  0.33429540  0.55991168  0.82976476    -0.12770
C957        C  0.31267534  0.54799413  0.80736213     0.00880
C958        C  0.32550596  0.53540702  0.77960266    -0.11300
C959        C  0.35332427  0.54752483  0.76691318     0.03370
C960        C  0.37554699  0.55897238  0.78878840    -0.10720
H961        H  0.32637722  0.56654245  0.85327788     0.08960
H962        H  0.31113335  0.52085285  0.76503733     0.06490
H963        H  0.39915541  0.56391609  0.78071952     0.06340
C964        C  0.22413255  0.53418907  0.82139574     0.03380
C965        C  0.25623358  0.53986788  0.83030460    -0.12770
C966        C  0.27724509  0.55160179  0.80730845     0.00880
C967        C  0.26380041  0.56109256  0.77839878    -0.11300
C968        C  0.23770719  0.54495202  0.76618166     0.03370
C969        C  0.21695639  0.53159308  0.78835610    -0.10720
H970        H  0.26449643  0.53650577  0.85439632     0.08960
H971        H  0.27672858  0.57637987  0.76308598     0.06490
H972        H  0.19514021  0.52090102  0.78030966     0.06340
C973        C  0.22406764  0.55644000  0.67725504     0.03380
C974        C  0.25661833  0.55691565  0.66959229    -0.12770
C975        C  0.27815562  0.54316354  0.69088247     0.00880
C976        C  0.26575255  0.52818768  0.71785222    -0.11300
C977        C  0.23754173  0.53916943  0.73095293     0.03370
C978        C  0.21532278  0.55186403  0.70961621    -0.10720
H979        H  0.26467800  0.56632404  0.64701597     0.08960
H980        H  0.28006744  0.51193361  0.73112006     0.06490
H981        H  0.19173760  0.55691635  0.71777800     0.06340
C982        C  0.36679693  0.53623176  0.67734094     0.03380
C983        C  0.37569964  0.53991992  0.70988328    -0.12770
C984        C  0.35347708  0.55218150  0.73133852     0.00880
C985        C  0.32540676  0.56367034  0.71808061    -0.11300
C986        C  0.31283997  0.54936100  0.69091273     0.03370
C987        C  0.33426843  0.53621512  0.66941986    -0.10720
H988        H  0.39931903  0.53458095  0.71795392     0.08960
H989        H  0.31111554  0.57934717  0.73170810     0.06490
H990        H  0.32617429  0.52758380  0.64655226     0.06340
C991        C  0.06004378  0.72600772  0.82286401     0.03380
C992        C  0.06982721  0.75824965  0.82754345    -0.12770
C993        C  0.08039803  0.77657673  0.80141909     0.00880
C994        C  0.08634105  0.75935601  0.77316904    -0.11300
C995        C  0.06728757  0.73271707  0.76609598     0.03370
C996        C  0.05555800  0.71473504  0.79161252    -0.10720
H997        H  0.06761151  0.76905996  0.85080293     0.08960
H998        H  0.09784571  0.77124279  0.75347513     0.06490
H999        H  0.04254732  0.69275497  0.78721678     0.06340
C1000       C  0.05504277  0.86357685  0.82134538     0.03380
C1001       C  0.07002642  0.83309660  0.82532026    -0.12770
C1002       C  0.07370476  0.81229056  0.79898823     0.00880
C1003       C  0.06424889  0.82425017  0.76922276    -0.11300
C1004       C  0.04409544  0.85038090  0.76645222     0.03370
C1005       C  0.03946715  0.87034213  0.79243818    -0.10720
H1006       H  0.07898797  0.82592083  0.84836621     0.08960
H1007       H  0.06840592  0.81110603  0.74764358     0.06490
H1008       H  0.02437928  0.89124563  0.79002894     0.06340
C1009       C  0.04161549  0.72443145  0.67985401     0.03380
C1010       C  0.05437758  0.71557841  0.70956233    -0.12770
C1011       C  0.04919887  0.73512571  0.73589173     0.00880
C1012       C  0.02996034  0.76220911  0.73248907    -0.11300
C1013       C  0.02163545  0.77493747  0.70244253     0.03370
C1014       C  0.02687111  0.75488234  0.67588200    -0.10720
H1015       H  0.06817714  0.69376466  0.71203529     0.08960
H1016       H  0.02548962  0.77531116  0.75403204     0.06490
H1017       H  0.01946154  0.76254491  0.65242443     0.06340
C1018       C  0.03340468  0.86259348  0.67964838     0.03380
C1019       C  0.04030438  0.87034507  0.71150379    -0.12770
C1020       C  0.02664754  0.85311313  0.73628135     0.00880
C1021       C  0.00709729  0.82720277  0.72851388    -0.11300
C1022       C  0.01365388  0.81060807  0.70016496     0.03370
C1023       C  0.02337367  0.83009086  0.67421813    -0.10720
H1024       H  0.05840448  0.88763675  0.71724557     0.08960
H1025       H  0.99537726  0.81488860  0.74782176     0.06490
H1026       H  0.02503345  0.81919789  0.65109754     0.06340
O1027       O  0.49377858  0.95364619  0.99529110    -0.79880
O1028       O  0.49394829  0.63764086  0.00452614    -0.81440
O1029       O  0.45578998  0.54160766  0.55210790    -0.78460
O1030       O  0.45615448  0.54872207  0.94695650    -0.76840
O1031       O  0.49391734  0.55003827  0.90833516    -0.78630
O1032       O  0.49330446  0.54036276  0.59121663    -0.79560
O1033       O  0.45617964  0.59842419  0.00170506    -0.80890
O1034       O  0.45588171  0.99286007  0.99688699    -0.81180
Eu1035     Eu  0.48200701  0.54574577  0.99925149     2.39200
O1036       O  0.01402415  0.57813205  0.96752219    -0.88690
O1037       O  0.01315983  0.51193293  0.53205830    -0.92290
C1038       C  0.46493643  0.96332594  0.99483310     1.02400
C1039       C  0.46507605  0.62802440  0.00410292     1.02220
C1040       C  0.46449564  0.53969547  0.58150352     1.02160
C1041       C  0.46496300  0.55013927  0.91764650     1.00020
H1042       H  0.00026507  0.59043056  0.54605553     0.29770
O1043       O  0.01346269  0.57735894  0.53263108    -1.01080
H1044       H  0.00070727  0.49982967  0.95309664     0.29800
O1045       O  0.01366746  0.51296543  0.96676927    -1.03620
O1046       O  0.09773144  0.63618748  0.99751863    -0.80840
O1047       O  0.09711675  0.95374850  0.50309136    -0.80380
O1048       O  0.04338269  0.59712482  0.59117015    -0.78820
O1049       O  0.04558696  0.59988569  0.90988902    -0.82160
O1050       O  0.04699135  0.99127929  0.91054183    -0.80010
O1051       O  0.04564033  0.98937928  0.58812148    -0.78660
O1052       O  0.13394529  0.54939729  0.55298155    -0.80180
O1053       O  0.13539780  0.54092056  0.94865815    -0.82110
O1054       O  0.09627042  0.54850506  0.59169244    -0.78850
O1055       O  0.09812658  0.54302369  0.90954471    -0.81410
O1056       O  0.04794182  0.63641517  0.55309584    -0.77260
O1057       O  0.04394359  0.95164330  0.54891835    -0.77290
O1058       O  0.04923084  0.95303313  0.94953420    -0.76930
O1059       O  0.04457858  0.63800824  0.94926481    -0.80430
O1060       O  0.13552349  0.59710000  0.49587539    -0.79860
O1061       O  0.13485209  0.99309630  0.50309706    -0.78180
Eu1062     Eu  0.04575111  0.61026621  0.00051972     2.39770
Eu1063     Eu  0.04578684  0.98072115  0.49837985     2.39570
Eu1064     Eu  0.04493683  0.54409832  0.56500636     2.38400
Eu1065     Eu  0.04564812  0.54564433  0.93461655     2.39880
Eu1066     Eu  0.10892906  0.54496589  0.50050843     2.39790
O1067       O  0.07732260  0.51281005  0.96735840    -0.92600
O1068       O  0.07710248  0.57715461  0.53305637    -0.91490
C1069       C  0.12656100  0.62672547  0.99509656     1.02570
C1070       C  0.12591551  0.96343272  0.50438195     1.01290
C1071       C  0.04553353  0.62684955  0.58220811     1.00680
C1072       C  0.04511167  0.62932232  0.91992347     1.02690
C1073       C  0.04887772  0.96162050  0.92013431     1.01610
C1074       C  0.04466490  0.95980960  0.57839875     1.00460
C1075       C  0.12507171  0.55048563  0.58228073     1.00520
C1076       C  0.12698474  0.54071453  0.91920268     1.03130
H1077       H  0.09033016  0.49892225  0.54648431     0.30500
O1078       O  0.07726871  0.51209679  0.53286781    -1.04760
H1079       H  0.09043098  0.59109422  0.95412638     0.32550
O1080       O  0.07733155  0.57787024  0.96756094    -1.07320
C1081       C  0.03887947  0.88728463  0.65349022     0.00090
C1082       C  0.03804348  0.87795916  0.62122923    -0.11780
C1083       C  0.03951605  0.90062460  0.59636611     0.02330
C1084       C  0.04416862  0.93374418  0.60311459     0.00010
C1085       C  0.04737055  0.94275574  0.63493921    -0.11720
C1086       C  0.04252667  0.92097140  0.65973497     0.02210
H1087       H  0.03521050  0.85300897  0.61473759     0.15190
H1088       H  0.05136725  0.96785365  0.64084494     0.15190
C1089       C  0.03833977  0.93569690  0.69052465     0.36850
C1090       C  0.03562177  0.88881830  0.56433556     0.36750
N1091       N  0.03498940  0.94810978  0.71487908    -0.43500
N1092       N  0.03236718  0.87925051  0.53873245    -0.43490
C1093       C  0.04448152  0.65191379  0.60712983     0.00090
C1094       C  0.06760078  0.67611346  0.60777950    -0.11780
C1095       C  0.06713853  0.70018693  0.63117187     0.02330
C1096       C  0.04266245  0.70080633  0.65365442     0.00010
C1097       C  0.01950280  0.67681401  0.65285260    -0.11720
C1098       C  0.02029816  0.65237957  0.63003085     0.02210
H1099       H  0.08640934  0.67576045  0.59044271     0.15190
H1100       H  0.50059048  0.67734834  0.67062008     0.15190
C1101       C  0.49506352  0.62909442  0.63012554     0.36850
C1102       C  0.09244469  0.72330089  0.63235865     0.36750
N1103       N  0.47484556  0.61045318  0.62977985    -0.43500
N1104       N  0.11288403  0.74165889  0.63346137    -0.43490
C1105       C  0.05107522  0.93563945  0.89565338     0.00090
C1106       C  0.05848938  0.94435835  0.86429802    -0.11780
C1107       C  0.06084662  0.92129112  0.84027020     0.02330
C1108       C  0.05481370  0.88837916  0.84693990     0.00010
C1109       C  0.04803778  0.87938704  0.87830232    -0.11720
C1110       C  0.04647541  0.90238238  0.90262903     0.02210
H1111       H  0.06305280  0.96938010  0.85844397     0.15190
H1112       H  0.04342658  0.85429559  0.88380703     0.15190
C1113       C  0.03952394  0.89075005  0.93422490     0.36850
C1114       C  0.07065093  0.93217302  0.80918811     0.36750
N1115       N  0.03397442  0.88128826  0.95948781    -0.43500
N1116       N  0.07842550  0.94095433  0.78430179    -0.43490
C1117       C  0.05495054  0.70395747  0.85005773     0.00090
C1118       C  0.02531633  0.68987091  0.85502189    -0.11780
C1119       C  0.02122172  0.66610682  0.87846847     0.02330
C1120       C  0.04733540  0.65530401  0.89623532     0.00010
C1121       C  0.07658914  0.67009843  0.89200928    -0.11720
C1122       C  0.08053237  0.69441105  0.86934354     0.02210
H1123       H  0.50590759  0.69802774  0.84065591     0.15190
H1124       H  0.09654422  0.66228323  0.90620297     0.15190
C1125       C  0.11143386  0.70820518  0.86534542     0.36850
C1126       C  0.49013814  0.65557554  0.88555401     0.36750
N1127       N  0.13614288  0.71937916  0.86214738    -0.43500
N1128       N  0.46497076  0.64660026  0.89100385    -0.43490
C1129       C  0.39083592  0.53536883  0.65172844     0.00090
C1130       C  0.41766750  0.51603348  0.65523610    -0.11780
C1131       C  0.44188427  0.51691544  0.63271769     0.02330
C1132       C  0.43940672  0.53720493  0.60577079     0.00010
C1133       C  0.41239765  0.55616162  0.60201176    -0.11720
C1134       C  0.38852658  0.55587725  0.62478167     0.02210
H1135       H  0.41980541  0.50025750  0.67571012     0.15190
H1136       H  0.41045571  0.57224879  0.58172919     0.15190
C1137       C  0.36303662  0.57857301  0.62075599     0.36850
C1138       C  0.46858784  0.49615603  0.63766627     0.36750
N1139       N  0.34270456  0.59683375  0.61749693    -0.43500
N1140       N  0.48867655  0.97951995  0.64145387    -0.43490
C1141       C  0.19975513  0.55739288  0.65166025     0.00090
C1142       C  0.17162921  0.57453986  0.65627028    -0.11780
C1143       C  0.14683599  0.57260690  0.63425623     0.02330
C1144       C  0.15015488  0.55365247  0.60659727     0.00010
C1145       C  0.17842026  0.53711227  0.60167119    -0.11720
C1146       C  0.20280081  0.53827935  0.62393371     0.02210
H1147       H  0.16883031  0.58926632  0.67730171     0.15190
H1148       H  0.18106455  0.52211377  0.58076767     0.15190
C1149       C  0.22962647  0.51765873  0.61847651     0.36850
C1150       C  0.11855278  0.59069567  0.64053252     0.36750
N1151       N  0.25093156  0.00110142  0.61417536    -0.43500
N1152       N  0.09594611  0.60517297  0.64590322    -0.43490
C1153       C  0.15210071  0.53777013  0.89457554     0.00090
C1154       C  0.14581848  0.54920986  0.86380988    -0.11780
C1155       C  0.16866992  0.54840081  0.83995094     0.02330
C1156       C  0.19833742  0.53360455  0.84569119     0.00010
C1157       C  0.20438988  0.52160500  0.87637412    -0.11720
C1158       C  0.18231456  0.52464169  0.90090131     0.02210
H1159       H  0.12334982  0.56048895  0.85868464     0.15190
H1160       H  0.22687900  0.51057154  0.88170240     0.15190
C1161       C  0.19244273  0.51577745  0.93249761     0.36850
C1162       C  0.16151172  0.56556786  0.81088783     0.36750
N1163       N  0.20133823  0.50967969  0.95781962    -0.43500
N1164       N  0.15566112  0.57953939  0.78777251    -0.43490
C1165       C  0.39153204  0.56140313  0.84697215     0.00090
C1166       C  0.38804235  0.53931359  0.87216914    -0.11780
C1167       C  0.41167133  0.53496709  0.89506926     0.02330
C1168       C  0.43989808  0.55274606  0.89305283     0.00010
C1169       C  0.44368766  0.57448352  0.86771278    -0.11720
C1170       C  0.41966267  0.57949804  0.84524208     0.02210
H1171       H  0.36708439  0.52449680  0.87345813     0.15190
H1172       H  0.46529673  0.58815055  0.86583732     0.15190
C1173       C  0.42405859  0.60433114  0.82161506     0.36850
C1174       C  0.40650110  0.01022126  0.91960968     0.36750
N1175       N  0.42764361  0.62432775  0.80275913    -0.43500
N1176       N  0.40244727  0.99084903  0.93899399    -0.43490
C1177       C  0.20120144  0.89511373  0.51248625     0.00090
C1178       C  0.17674483  0.89448904  0.53470719    -0.11780
C1179       C  0.15179767  0.91644917  0.53252085     0.02330
C1180       C  0.15084651  0.93900886  0.50738485     0.00010
C1181       C  0.17488412  0.93902844  0.98669535    -0.11720
C1182       C  0.20009438  0.91769836  0.98893808     0.02210
H1183       H  0.17721225  0.87688507  0.55379709     0.15190
H1184       H  0.17377074  0.95590664  0.96708711     0.15190
C1185       C  0.22374437  0.91898005  0.96437275     0.36850
C1186       C  0.12830601  0.91608157  0.55705441     0.36750
N1187       N  0.24265014  0.92009850  0.94468618    -0.43500
N1188       N  0.10998094  0.91554404  0.57725442    -0.43490
C1189       C  0.15091484  0.65181602  0.99149413     0.00090
C1190       C  0.14891112  0.67940523  0.51074329    -0.11780
C1191       C  0.17177905  0.70347201  0.50906969     0.02330
C1192       C  0.19692870  0.70076084  0.98696012     0.00010
C1193       C  0.19869568  0.67336689  0.96762476    -0.11720
C1194       C  0.17608929  0.64890920  0.96980795     0.02210
H1195       H  0.12994957  0.68162083  0.52779504     0.15190
H1196       H  0.21786144  0.67098475  0.95086636     0.15190
C1197       C  0.17899385  0.62156125  0.94895506     0.36850
C1198       C  0.16978639  0.72946158  0.53176512     0.36750
N1199       N  0.18167440  0.59980154  0.93207903    -0.43500
N1200       N  0.16813737  0.75017529  0.55003473    -0.43490
C1201       C  0.38995829  0.69706222  0.00986167     0.00090
C1202       C  0.41543611  0.69869895  0.53095215    -0.11780
C1203       C  0.44046339  0.67679787  0.52921986     0.02330
C1204       C  0.43999305  0.65246090  0.00638954     0.00010
C1205       C  0.41473039  0.65062021  0.98505708    -0.11720
C1206       C  0.39020904  0.67296979  0.98612006     0.02210
H1207       H  0.41584753  0.71750463  0.54878238     0.15190
H1208       H  0.41468727  0.63223396  0.96677452     0.15190
C1209       C  0.36692692  0.67202416  0.96105174     0.36850
C1210       C  0.46596033  0.68005045  0.55161383     0.36750
N1211       N  0.34847295  0.67142773  0.94079565    -0.43500
N1212       N  0.48634811  0.68319947  0.56956695    -0.43490
C1213       C  0.39111401  0.89363644  0.98787616     0.00090
C1214       C  0.41366981  0.89554005  0.96375017    -0.11780
C1215       C  0.43789877  0.91836262  0.96538455     0.02330
C1216       C  0.44014292  0.93893391  0.99192474     0.00010
C1217       C  0.41759917  0.93729038  0.51565756    -0.11720
C1218       C  0.39334324  0.91476442  0.51401261     0.02210
H1219       H  0.41202707  0.87957961  0.94346066     0.15190
H1220       H  0.41916845  0.95330094  0.53594438     0.15190
C1221       C  0.37154873  0.91311080  0.54025076     0.36850
C1222       C  0.45867726  0.92185895  0.93859561     0.36750
N1223       N  0.35410866  0.91186000  0.56126752    -0.43500
N1224       N  0.47476171  0.92506018  0.91671088    -0.43490
C1225       C  0.86685313  0.36845098  0.98682924     0.03380
C1226       C  0.87508210  0.33537806  0.48865422    -0.12770
C1227       C  0.85329167  0.31350885  0.50131987     0.00880
C1228       C  0.82617159  0.32670684  0.51468188    -0.11300
C1229       C  0.81358506  0.35526929  0.00233081     0.03370
C1230       C  0.83473366  0.37738302  0.98935936    -0.10720
H1231       H  0.89827585  0.32727354  0.48178733     0.08960
H1232       H  0.81252073  0.31238701  0.53031836     0.06490
H1233       H  0.82693683  0.40140140  0.98301513     0.06340
C1234       C  0.86550326  0.22248340  0.50979905     0.03380
C1235       C  0.87444525  0.25546085  0.50779792    -0.12770
C1236       C  0.85270750  0.27776147  0.49583937     0.00880
C1237       C  0.82473121  0.26521827  0.48354001    -0.11300
C1238       C  0.81176059  0.23690007  0.49588222     0.03370
C1239       C  0.83303056  0.21420432  0.50805904    -0.10720
H1240       H  0.89795558  0.26324287  0.51402038     0.08960
H1241       H  0.81056115  0.28007446  0.46885028     0.06490
H1242       H  0.82496712  0.19041157  0.51478583     0.06340
C1243       C  0.72267722  0.22490133  0.48644678     0.03380
C1244       C  0.75479175  0.21516368  0.48894089    -0.12770
C1245       C  0.77675715  0.23724728  0.50104435     0.00880
C1246       C  0.76453684  0.26578705  0.51335501    -0.11300
C1247       C  0.73745447  0.27947271  0.50033984     0.03370
C1248       C  0.71540469  0.25831521  0.48735276    -0.10720
H1249       H  0.76213277  0.19094118  0.48306779     0.08960
H1250       H  0.77872779  0.27986290  0.52865648     0.06490
H1251       H  0.69256573  0.26721151  0.98001040     0.06340
C1252       C  0.72547128  0.36968454  0.01295861     0.03380
C1253       C  0.75787241  0.37790525  0.01136334    -0.12770
C1254       C  0.77870013  0.35587459  0.99768204     0.00880
C1255       C  0.76545832  0.32854383  0.98383930    -0.11300
C1256       C  0.73779021  0.31539513  0.99601551     0.03370
C1257       C  0.71637223  0.33695102  0.00951260    -0.10720
H1258       H  0.76613427  0.40134740  0.01891224     0.08960
H1259       H  0.77908187  0.31481567  0.96772444     0.06490
H1260       H  0.69291749  0.32895193  0.01559705     0.06340
C1261       C  0.86691152  0.06165751  0.32150265     0.03380
C1262       C  0.83429361  0.05991287  0.32976450    -0.12770
C1263       C  0.81267377  0.04799487  0.30736183     0.00880
C1264       C  0.82550467  0.03540814  0.27960234    -0.11300
C1265       C  0.85332272  0.04752660  0.26691288     0.03370
C1266       C  0.87554519  0.05897461  0.28878809    -0.10720
H1267       H  0.82637530  0.06654337  0.35327764     0.08960
H1268       H  0.81113235  0.02085374  0.26503691     0.06490
H1269       H  0.89915348  0.06391879  0.28071915     0.06340
C1270       C  0.72413138  0.03418684  0.32139552     0.03380
C1271       C  0.75623224  0.03986682  0.33030436    -0.12770
C1272       C  0.77724338  0.05160144  0.30730819     0.00880
C1273       C  0.76379836  0.06109170  0.27839850    -0.11300
C1274       C  0.73770560  0.04495030  0.26618144     0.03370
C1275       C  0.71695532  0.03159057  0.28835589    -0.10720
H1276       H  0.76449525  0.03650504  0.35439606     0.08960
H1277       H  0.77672609  0.07637930  0.26308559     0.06490
H1278       H  0.69513954  0.02089765  0.28030945     0.06340
C1279       C  0.72406609  0.05643880  0.17725499     0.03380
C1280       C  0.75661674  0.05691544  0.16959251    -0.12770
C1281       C  0.77815414  0.04316346  0.19088254     0.00880
C1282       C  0.76575138  0.02818684  0.21785202    -0.11300
C1283       C  0.73754023  0.03916769  0.23095272     0.03370
C1284       C  0.71532108  0.05186202  0.20961602    -0.10720
H1285       H  0.76467639  0.06632457  0.14701648     0.08960
H1286       H  0.78006667  0.01193301  0.23111975     0.06490
H1287       H  0.69173575  0.05691370  0.21777774     0.06340
C1288       C  0.86679514  0.03623350  0.17734067     0.03380
C1289       C  0.87569803  0.03992204  0.20988292    -0.12770
C1290       C  0.85347540  0.05218339  0.23133825     0.00880
C1291       C  0.82540480  0.06367162  0.21808046    -0.11300
C1292       C  0.81283820  0.04936183  0.19091273     0.03370
C1293       C  0.83426668  0.03621627  0.16941980    -0.10720
H1294       H  0.89931753  0.03458338  0.21795343     0.08960
H1295       H  0.81111330  0.07934816  0.23170801     0.06490
H1296       H  0.82617252  0.02758456  0.14655234     0.06340
C1297       C  0.56003039  0.22600299  0.32286038     0.03380
C1298       C  0.56980805  0.25824618  0.32754327    -0.12770
C1299       C  0.58037761  0.27657717  0.30142114     0.00880
C1300       C  0.58632608  0.25936014  0.27317029    -0.11300
C1301       C  0.56727791  0.23271830  0.26609366     0.03370
C1302       C  0.55554911  0.21473199  0.29160772    -0.10720
H1303       H  0.56758875  0.26905434  0.35080339     0.08960
H1304       H  0.59782928  0.27125173  0.25347821     0.06490
H1305       H  0.54254273  0.19274981  0.28720929     0.06340
C1306       C  0.55501477  0.36357442  0.32134986     0.03380
C1307       C  0.56999970  0.33309485  0.32532378    -0.12770
C1308       C  0.57367629  0.31228914  0.29899170     0.00880
C1309       C  0.56421440  0.32424687  0.26922769    -0.11300
C1310       C  0.54405844  0.35037570  0.26645907     0.03370
C1311       C  0.53943473  0.37033887  0.29244466    -0.10720
H1312       H  0.57896546  0.32592029  0.34836846     0.08960
H1313       H  0.56837270  0.31110417  0.24764802     0.06490
H1314       H  0.52434861  0.39124381  0.29003632     0.06340
C1315       C  0.54162258  0.22443633  0.17984720     0.03380
C1316       C  0.55438161  0.21558304  0.20955661    -0.12770
C1317       C  0.54919272  0.23512542  0.23588739     0.00880
C1318       C  0.52994798  0.26220434  0.23248441    -0.11300
C1319       C  0.52162825  0.27493545  0.20243760     0.03370
C1320       C  0.52687289  0.25488452  0.17587577    -0.10720
H1321       H  0.56818503  0.19377187  0.21202983     0.08960
H1322       H  0.52546882  0.27530228  0.25402807     0.06490
H1323       H  0.51946506  0.26254767  0.15241782     0.06340
C1324       C  0.53338655  0.36259835  0.17965569     0.03380
C1325       C  0.54027143  0.37034972  0.21151461    -0.12770
C1326       C  0.52661294  0.35311052  0.23628655     0.00880
C1327       C  0.50707176  0.32719545  0.22851042    -0.11300
C1328       C  0.51364199  0.31060514  0.20016227     0.03370
C1329       C  0.52336788  0.33009215  0.17422102    -0.10720
H1330       H  0.55837131  0.38763792  0.21726505     0.08960
H1331       H  0.49535010  0.31487550  0.24781369     0.06490
H1332       H  0.52504669  0.31919786  0.15110271     0.06340
O1333       O  0.99377738  0.45364259  0.49529391    -0.79880
O1334       O  0.99394916  0.13764070  0.50452607    -0.81440
O1335       O  0.95578779  0.04160672  0.05210698    -0.78460
O1336       O  0.95615486  0.04872311  0.44695471    -0.76840
O1337       O  0.99391714  0.05003934  0.40833280    -0.78630
O1338       O  0.99330209  0.04036076  0.09121584    -0.79560
O1339       O  0.95618066  0.09842401  0.50170366    -0.80890
O1340       O  0.95588051  0.49285649  0.49688974    -0.81180
Eu1341     Eu  0.98200807  0.04574579  0.49924918     2.39200
O1342       O  0.51402319  0.07812792  0.46752166    -0.88690
O1343       O  0.51316046  0.01193577  0.03205598    -0.92290
C1344       C  0.96493521  0.46332234  0.49483600     1.02400
C1345       C  0.96507692  0.12802417  0.50410243     1.02220
C1346       C  0.96449326  0.03969423  0.08150262     1.02160
C1347       C  0.96496290  0.05014049  0.41764459     1.00020
H1348       H  0.50026722  0.09043424  0.04605287     0.29770
O1349       O  0.51346446  0.07736239  0.03262825    -1.01080
H1350       H  0.50070572  0.99982516  0.45309810     0.29800
O1351       O  0.51366591  0.01296119  0.46677047    -1.03620
O1352       O  0.59773081  0.13618391  0.49751541    -0.80840
O1353       O  0.59711547  0.45374778  0.00309418    -0.80380
O1354       O  0.54338814  0.09712806  0.09116621    -0.78820
O1355       O  0.54558481  0.09987842  0.40988665    -0.82160
O1356       O  0.54699023  0.49128196  0.41054092    -0.80010
O1357       O  0.54563713  0.48938253  0.08812606    -0.78660
O1358       O  0.63394608  0.04939995  0.05297918    -0.80180
O1359       O  0.63539682  0.04091593  0.44865817    -0.82110
O1360       O  0.59627105  0.04850659  0.09168990    -0.78850
O1361       O  0.59812533  0.04301838  0.40954501    -0.81410
O1362       O  0.54794722  0.13641829  0.05309166    -0.77260
O1363       O  0.54394110  0.45164592  0.04892342    -0.77290
O1364       O  0.54923030  0.45303659  0.44953395    -0.76930
O1365       O  0.54457605  0.13800270  0.44926079    -0.80430
O1366       O  0.63552510  0.09710295  0.99587291    -0.79860
O1367       O  0.63485066  0.49309570  0.00309999    -0.78180
Eu1368     Eu  0.54575032  0.11026346  0.50051761     2.39770
Eu1369     Eu  0.54578594  0.48072096  0.99838330     2.39570
Eu1370     Eu  0.54493792  0.04410094  0.06500354     2.38400
Eu1371     Eu  0.54564690  0.04563898  0.43461712     2.39880
Eu1372     Eu  0.60893039  0.04496906  0.00050547     2.39790
O1373       O  0.57732141  0.01280541  0.46735941    -0.92600
O1374       O  0.57710316  0.07715720  0.03305292    -0.91490
C1375       C  0.62656037  0.12672168  0.49509417     1.02570
C1376       C  0.62591421  0.46343201  0.00438483     1.01290
C1377       C  0.54554018  0.12685265  0.08220397     1.00680
C1378       C  0.54510873  0.12931542  0.41991977     1.02690
C1379       C  0.54887571  0.46162330  0.42013401     1.01610
C1380       C  0.54466085  0.45981287  0.07840372     1.00460
C1381       C  0.62507232  0.05048750  0.08227838     1.00520
C1382       C  0.62698359  0.04070960  0.41920276     1.03130
H1383       H  0.59033165  0.99892546  0.04648133     0.30500
O1384       O  0.57727012  0.01210005  0.03286496    -1.04760
H1385       H  0.59042992  0.09108947  0.45412488     0.32550
O1386       O  0.57733056  0.07786601  0.46756002    -1.07320
C1387       C  0.53886766  0.38729012  0.15349773     0.00090
C1388       C  0.53801346  0.37796692  0.12123606    -0.11780
C1389       C  0.53948973  0.40063156  0.09637280     0.02330
C1390       C  0.54416186  0.43374808  0.10311983     0.00010
C1391       C  0.54737937  0.44275777  0.13494329    -0.11720
C1392       C  0.54253470  0.42097557  0.15974112     0.02210
H1393       H  0.53515991  0.35301989  0.11474298     0.15190
H1394       H  0.55138931  0.46785401  0.14084711     0.15190
C1395       C  0.53836747  0.43570575  0.19053116     0.36850
C1396       C  0.53557537  0.38882813  0.06434359     0.36750
N1397       N  0.53503294  0.44812438  0.21488502    -0.43500
N1398       N  0.53230473  0.37926267  0.03874167    -0.43490
C1399       C  0.54448994  0.15191683  0.10712554     0.00090
C1400       C  0.56761111  0.17611464  0.10777603    -0.11780
C1401       C  0.56714926  0.20018870  0.13116790     0.02330
C1402       C  0.54267119  0.20081086  0.15364823     0.00010
C1403       C  0.51951022  0.17682002  0.15284576    -0.11720
C1404       C  0.52030570  0.15238456  0.13002539     0.02210
H1405       H  0.58642062  0.17575969  0.09044033     0.15190
H1406       H  0.00058618  0.17734120  0.17062580     0.15190
C1407       C  0.99505833  0.12908955  0.13012820     0.36850
C1408       C  0.59245754  0.22330015  0.13235636     0.36750
N1409       N  0.97484093  0.11044766  0.12978247    -0.43500
N1410       N  0.61289885  0.24165580  0.13346019    -0.43490
C1411       C  0.55106859  0.43564098  0.39565418     0.00090
C1412       C  0.55848075  0.44435718  0.36429760    -0.11780
C1413       C  0.56083107  0.42128821  0.34027064     0.02330
C1414       C  0.55479247  0.38837801  0.34694272     0.00010
C1415       C  0.54801939  0.37938837  0.37830629    -0.11720
C1416       C  0.54646457  0.40238495  0.40263212     0.02210
H1417       H  0.56304783  0.46937784  0.35844197     0.15190
H1418       H  0.54340489  0.35429791  0.38381264     0.15190
C1419       C  0.53951605  0.39075492  0.43422952     0.36850
C1420       C  0.57063533  0.43216565  0.30918708     0.36750
N1421       N  0.53396894  0.38129502  0.45949367    -0.43500
N1422       N  0.57841070  0.44094300  0.28429969    -0.43490
C1423       C  0.55494071  0.20394939  0.35005191     0.00090
C1424       C  0.52530655  0.18986455  0.35502062    -0.11780
C1425       C  0.52121450  0.16610029  0.37846759     0.02330
C1426       C  0.54733052  0.15529582  0.39623010     0.00010
C1427       C  0.57658477  0.17008732  0.39199812    -0.11720
C1428       C  0.58052558  0.19439990  0.36933196     0.02210
H1429       H  0.00591575  0.19803055  0.34065323     0.15190
H1430       H  0.59654189  0.16227036  0.40618792     0.15190
C1431       C  0.61142730  0.20819166  0.36532770     0.36850
C1432       C  0.99014258  0.15557785  0.38554929     0.36750
N1433       N  0.63613644  0.21936375  0.36212443    -0.43500
N1434       N  0.96497472  0.14660237  0.39099654    -0.43490
C1435       C  0.89083380  0.03537002  0.15172798     0.00090
C1436       C  0.91766488  0.01603413  0.15523562    -0.11780
C1437       C  0.94188126  0.01691513  0.13271686     0.02330
C1438       C  0.93940413  0.03720438  0.10576981     0.00010
C1439       C  0.91239536  0.05616154  0.10201070    -0.11720
C1440       C  0.88852443  0.05587789  0.12478081     0.02210
H1441       H  0.91980260  0.00025831  0.17570978     0.15190
H1442       H  0.91045354  0.07224841  0.08172790     0.15190
C1443       C  0.86303445  0.07857355  0.12075477     0.36850
C1444       C  0.96858373  0.99615446  0.13766510     0.36750
N1445       N  0.84270230  0.09683412  0.11749540    -0.43500
N1446       N  0.98866623  0.47950955  0.14144495    -0.43490
C1447       C  0.69975399  0.05739216  0.15165989     0.00090
C1448       C  0.67162780  0.07453855  0.15627012    -0.11780
C1449       C  0.64683519  0.07260643  0.13425537     0.02330
C1450       C  0.65015508  0.05365371  0.10659537     0.00010
C1451       C  0.67842071  0.03711405  0.10166916    -0.11720
C1452       C  0.70280059  0.03828006  0.12393248     0.02210
H1453       H  0.66882821  0.08926385  0.17730223     0.15190
H1454       H  0.68106567  0.02211665  0.08076495     0.15190
C1455       C  0.72962647  0.01765979  0.11847509     0.36850
C1456       C  0.61855145  0.09069409  0.14053231     0.36750
N1457       N  0.75093015  0.50110120  0.11417886    -0.43500
N1458       N  0.59594434  0.10517040  0.14590372    -0.43490
C1459       C  0.65209949  0.03776550  0.39457546     0.00090
C1460       C  0.64581657  0.04920419  0.36380956    -0.11780
C1461       C  0.66866802  0.04839601  0.33995060     0.02330
C1462       C  0.69833623  0.03360127  0.34569096     0.00010
C1463       C  0.70438931  0.02160251  0.37637406    -0.11720
C1464       C  0.68231407  0.02463884  0.40090134     0.02210
H1465       H  0.62334737  0.06048210  0.35868418     0.15190
H1466       H  0.72687897  0.01057030  0.38170250     0.15190
C1467       C  0.69244342  0.01577704  0.43249789     0.36850
C1468       C  0.66150909  0.06556269  0.31088746     0.36750
N1469       N  0.70134013  0.00968163  0.45782001    -0.43500
N1470       N  0.65565791  0.07953399  0.28777216    -0.43490
C1471       C  0.89153041  0.06140540  0.34697179     0.00090
C1472       C  0.88804091  0.03931610  0.37216901    -0.11780
C1473       C  0.91167030  0.03496937  0.39506868     0.02330
C1474       C  0.93989743  0.05274767  0.39305144     0.00010
C1475       C  0.94368670  0.07448505  0.36771130    -0.11720
C1476       C  0.91966121  0.07950003  0.34524122     0.02210
H1477       H  0.86708279  0.02449961  0.37345852     0.15190
H1478       H  0.96529596  0.08815166  0.36583528     0.15190
C1479       C  0.92405680  0.10433336  0.32161437     0.36850
C1480       C  0.90649961  0.51021830  0.41961063     0.36750
N1481       N  0.92764153  0.12433018  0.30275860    -0.43500
N1482       N  0.90244524  0.49084599  0.43899475    -0.43490
C1483       C  0.70120216  0.39511492  0.01249027     0.00090
C1484       C  0.67674126  0.39448457  0.03470643    -0.11780
C1485       C  0.65179261  0.41644287  0.03251891     0.02330
C1486       C  0.65084550  0.43900824  0.00738770     0.00010
C1487       C  0.67488563  0.43902925  0.48669844    -0.11720
C1488       C  0.70009487  0.41769791  0.48894117     0.02210
H1489       H  0.67720574  0.37687661  0.05379280     0.15190
H1490       H  0.67377429  0.45590906  0.46709147     0.15190
C1491       C  0.72374629  0.41898050  0.46437729     0.36850
C1492       C  0.62829327  0.41606520  0.05704493     0.36750
N1493       N  0.74265316  0.42009963  0.44469183    -0.43500
N1494       N  0.60996084  0.41551851  0.07723794    -0.43490
C1495       C  0.65091423  0.15181222  0.49149215     0.00090
C1496       C  0.64891317  0.17940743  0.01074164    -0.11780
C1497       C  0.67178133  0.20347400  0.00906871     0.02330
C1498       C  0.69692776  0.20075745  0.48695915     0.00010
C1499       C  0.69869557  0.17336331  0.46762406    -0.11720
C1500       C  0.67608933  0.14890539  0.46980679     0.02210
H1501       H  0.62995170  0.18162265  0.02779352     0.15190
H1502       H  0.71786185  0.17098120  0.45086627     0.15190
C1503       C  0.67899466  0.12155722  0.44895428     0.36850
C1504       C  0.66978918  0.22946272  0.03176515     0.36750
N1505       N  0.68167573  0.09979730  0.43207860    -0.43500
N1506       N  0.66814061  0.25017571  0.05003560    -0.43490
C1507       C  0.88995744  0.19705997  0.50986345     0.00090
C1508       C  0.91543771  0.19870059  0.03094835    -0.11780
C1509       C  0.94046397  0.17679824  0.02921695     0.02330
C1510       C  0.93999359  0.15246032  0.50638962     0.00010
C1511       C  0.91473093  0.15061969  0.48505713    -0.11720
C1512       C  0.89020890  0.17296845  0.48612097     0.02210
H1513       H  0.91584991  0.21750688  0.04877794     0.15190
H1514       H  0.91468828  0.13223410  0.46677395     0.15190
C1515       C  0.86692682  0.17202305  0.46105261     0.36850
C1516       C  0.96596100  0.18005066  0.05161085     0.36750
N1517       N  0.84847289  0.17142683  0.44079648    -0.43500
N1518       N  0.98634875  0.18319964  0.06956402    -0.43490
C1519       C  0.89111209  0.39363360  0.48787880     0.00090
C1520       C  0.91366920  0.39553559  0.46375390    -0.11780
C1521       C  0.93789864  0.41835760  0.46538856     0.02330
C1522       C  0.94014164  0.43893035  0.49192773     0.00010
C1523       C  0.91760145  0.43729288  0.01565638    -0.11720
C1524       C  0.89334528  0.41476717  0.01401178     0.02210
H1525       H  0.91202732  0.37957408  0.44346515     0.15190
H1526       H  0.91917157  0.45330291  0.03594355     0.15190
C1527       C  0.87155158  0.41311332  0.04025058     0.36850
C1528       C  0.95867946  0.42185130  0.43860111     0.36750
N1529       N  0.85411210  0.41186242  0.06126785    -0.43500
N1530       N  0.97476613  0.42505027  0.41671773    -0.43490
C1531       C  0.86661250  0.36849501  0.48694691     0.03380
C1532       C  0.87530249  0.33532404  0.98860150    -0.12770
C1533       C  0.85345181  0.31347526  0.00120932     0.00880
C1534       C  0.82629804  0.32673212  0.01445764    -0.11300
C1535       C  0.81340814  0.35525154  0.50264470     0.03370
C1536       C  0.83449326  0.37739606  0.48960212    -0.10720
H1537       H  0.89851421  0.32720161  0.98181804     0.08960
H1538       H  0.81260652  0.31247134  0.03009998     0.06490
H1539       H  0.82665538  0.40141467  0.48331186     0.06340
C1540       C  0.86563499  0.22235229  0.00957586     0.03380
C1541       C  0.87459395  0.25534542  0.00763495    -0.12770
C1542       C  0.85283909  0.27769935  0.99577649     0.00880
C1543       C  0.82484749  0.26517958  0.98350279    -0.11300
C1544       C  0.81183956  0.23689758  0.99586587     0.03370
C1545       C  0.83312604  0.21412961  0.00792210    -0.10720
H1546       H  0.89812342  0.26309948  0.01381371     0.08960
H1547       H  0.81073096  0.28000706  0.96874935     0.06490
H1548       H  0.82504492  0.19033981  0.01463479     0.06340
C1549       C  0.72268321  0.22496123  0.98656268     0.03380
C1550       C  0.75480454  0.21521796  0.98902277    -0.12770
C1551       C  0.77681072  0.23731745  0.00102755     0.00880
C1552       C  0.76460767  0.26590528  0.01327919    -0.11300
C1553       C  0.73749676  0.27959391  0.00029121     0.03370
C1554       C  0.71541865  0.25839163  0.98740347    -0.10720
H1555       H  0.76212185  0.19097501  0.98320117     0.08960
H1556       H  0.77880786  0.27998835  0.02855668     0.06490
H1557       H  0.69255865  0.26715069  0.47995425     0.06340
C1558       C  0.72534766  0.36926454  0.51391187     0.03380
C1559       C  0.75771756  0.37758933  0.51222120    -0.12770
C1560       C  0.77851664  0.35581392  0.49810854     0.00880
C1561       C  0.76528697  0.32856745  0.48407211    -0.11300
C1562       C  0.73767773  0.31525841  0.49624252     0.03370
C1563       C  0.71630879  0.33658008  0.51011437    -0.10720
H1564       H  0.76596401  0.40096062  0.51999759     0.08960
H1565       H  0.77891774  0.31497530  0.46783093     0.06490
H1566       H  0.69290631  0.32843826  0.51622177     0.06340
C1567       C  0.86715012  0.06117173  0.82167399     0.03380
C1568       C  0.83450045  0.05951938  0.82988185    -0.12770
C1569       C  0.81283679  0.04788915  0.80736745     0.00880
C1570       C  0.82565731  0.03548878  0.77952208    -0.11300
C1571       C  0.85350031  0.04761862  0.76689369     0.03370
C1572       C  0.87578177  0.05875434  0.78890397    -0.10720
H1573       H  0.82658528  0.06598471  0.85344102     0.08960
H1574       H  0.81127882  0.02104533  0.76488060     0.06490
H1575       H  0.89941134  0.06365069  0.78087981     0.06340
C1576       C  0.72422069  0.03418134  0.82155520     0.03380
C1577       C  0.75636489  0.03977960  0.83040527    -0.12770
C1578       C  0.77737649  0.05146014  0.80736999     0.00880
C1579       C  0.76387769  0.06100176  0.77850145    -0.11300
C1580       C  0.73776021  0.04490039  0.76628854     0.03370
C1581       C  0.71699453  0.03160568  0.78850620    -0.10720
H1582       H  0.76466367  0.03639741  0.85448069     0.08960
H1583       H  0.77675740  0.07633559  0.76320632     0.06490
H1584       H  0.69515321  0.02094914  0.78048669     0.06340
C1585       C  0.72402745  0.05627638  0.67727501     0.03380
C1586       C  0.75657788  0.05698984  0.66963733    -0.12770
C1587       C  0.77819083  0.04342345  0.69095541     0.00880
C1588       C  0.76585380  0.02833251  0.71789514    -0.11300
C1589       C  0.73759363  0.03914940  0.73102362     0.03370
C1590       C  0.71529748  0.05168121  0.70965845    -0.10720
H1591       H  0.76459345  0.06645697  0.64706855     0.08960
H1592       H  0.78019436  0.01204148  0.73107866     0.06490
H1593       H  0.69168273  0.05658967  0.71781433     0.06340
C1594       C  0.86682196  0.03716207  0.67703723     0.03380
C1595       C  0.87581675  0.04057422  0.70962202    -0.12770
C1596       C  0.85359431  0.05251071  0.73129332     0.00880
C1597       C  0.82544442  0.06396683  0.71817719    -0.11300
C1598       C  0.81285043  0.04979338  0.69095131     0.03370
C1599       C  0.83427229  0.03703185  0.66923948    -0.10720
H1600       H  0.89947664  0.03523900  0.71756936     0.08960
H1601       H  0.81115579  0.07952333  0.73192559     0.06490
H1602       H  0.82613401  0.02851565  0.64634527     0.06340
C1603       C  0.55490137  0.22435021  0.82132614     0.03380
C1604       C  0.55640811  0.25737476  0.82901554    -0.12770
C1605       C  0.56120128  0.28010690  0.80490016     0.00880
C1606       C  0.56779638  0.26907228  0.77420448    -0.11300
C1607       C  0.55941889  0.23765953  0.76522244     0.03370
C1608       C  0.55414082  0.21474486  0.78915632    -0.10720
H1609       H  0.55201122  0.26525939  0.85311426     0.08960
H1610       H  0.57121392  0.28692103  0.75560250     0.06490
H1611       H  0.54810542  0.19020621  0.78292625     0.06340
C1612       C  0.55211536  0.37053593  0.81601252     0.03380
C1613       C  0.56273349  0.33880336  0.82208893    -0.12770
C1614       C  0.54813492  0.31321801  0.80671808     0.00880
C1615       C  0.52270889  0.31998816  0.78684824    -0.11300
C1616       C  0.51977524  0.35015357  0.77197848     0.03370
C1617       C  0.53335377  0.37641482  0.78843459    -0.10720
H1618       H  0.58062106  0.33406773  0.83988416     0.08960
H1619       H  0.50867094  0.30003678  0.77976124     0.06490
H1620       H  0.52811433  0.40077419  0.78093924     0.06340
C1621       C  0.54994977  0.22694663  0.67642758     0.03380
C1622       C  0.55881167  0.21837520  0.70768620    -0.12770
C1623       C  0.54528789  0.23491522  0.73299198     0.00880
C1624       C  0.52156596  0.25703631  0.72611444    -0.11300
C1625       C  0.52117705  0.27347405  0.69692836     0.03370
C1626       C  0.53420720  0.25667783  0.67095167    -0.10720
H1627       H  0.57467524  0.19843605  0.71212145     0.08960
H1628       H  0.50802293  0.26497820  0.74578906     0.06490
H1629       H  0.53087083  0.26553635  0.64696069     0.06340
C1630       C  0.52860679  0.36496027  0.68385138     0.03380
C1631       C  0.52136003  0.37377849  0.71575361    -0.12770
C1632       C  0.50960996  0.35077087  0.73727502     0.00880
C1633       C  0.49797183  0.32223081  0.72369482    -0.11300
C1634       C  0.51326534  0.30915032  0.69706903     0.03370
C1635       C  0.52798291  0.33139581  0.67652046    -0.10720
H1636       H  0.52441638  0.39784405  0.72441825     0.08960
H1637       H  0.48216069  0.30742871  0.73738183     0.06490
H1638       H  0.53942226  0.32264583  0.65531430     0.06340
O1639       O  0.99381973  0.45387428  0.99493087    -0.79880
O1640       O  0.99400142  0.13706427  0.00415480    -0.81440
O1641       O  0.95563145  0.04200328  0.55124760    -0.78460
O1642       O  0.95610046  0.04784354  0.94761112    -0.76840
O1643       O  0.99381847  0.04805782  0.90891784    -0.78630
O1644       O  0.99311508  0.04022451  0.59035759    -0.79560
O1645       O  0.95611070  0.09794895  0.00201922    -0.80890
O1646       O  0.95589745  0.49304261  0.99677665    -0.81180
Eu1647     Eu  0.98192260  0.04520002  0.00007353     2.39200
O1648       O  0.51416633  0.07786083  0.96769857    -0.88690
O1649       O  0.51321193  0.01206997  0.53187766    -0.92290
C1650       C  0.96497025  0.46352171  0.99459072     1.02400
C1651       C  0.96508861  0.12755747  0.00400048     1.02220
C1652       C  0.96427615  0.03989380  0.58065955     1.02160
C1653       C  0.96488435  0.04878821  0.91825627     1.00020
H1654       H  0.50046733  0.09069016  0.54620357     0.29770
O1655       O  0.51349547  0.07755844  0.53266413    -1.01080
H1656       H  0.50070839  0.99939128  0.95331731     0.29800
O1657       O  0.51363404  0.01253561  0.96701517    -1.03620
O1658       O  0.59770413  0.13625105  0.99799301    -0.80840
O1659       O  0.59667405  0.45288345  0.50514108    -0.80380
O1660       O  0.54546480  0.09736309  0.59071823    -0.78820
O1661       O  0.54579135  0.09867957  0.90981212    -0.82160
O1662       O  0.54862100  0.49556387  0.90758170    -0.80010
O1663       O  0.54572532  0.49050210  0.59127779    -0.78660
O1664       O  0.63403502  0.04936969  0.55271410    -0.80180
O1665       O  0.63554789  0.04085813  0.94903974    -0.82110
O1666       O  0.59641128  0.04817191  0.59146914    -0.78850
O1667       O  0.59825980  0.04257654  0.90993894    -0.81410
O1668       O  0.54997779  0.13641763  0.55242251    -0.77260
O1669       O  0.54333492  0.45229256  0.55253007    -0.77290
O1670       O  0.55129728  0.45658391  0.94578903    -0.76930
O1671       O  0.54471567  0.13729171  0.94874439    -0.80430
O1672       O  0.63560841  0.09708751  0.49562925    -0.79860
O1673       O  0.63446120  0.49216271  0.50400649    -0.78180
Eu1674     Eu  0.54571403  0.11029059  0.00069103     2.39770
Eu1675     Eu  0.54538868  0.47980253  0.50086350     2.39570
Eu1676     Eu  0.54507824  0.04417032  0.56479753     2.38400
Eu1677     Eu  0.54577295  0.04508276  0.93502572     2.39880
Eu1678     Eu  0.60896854  0.04501032  0.50017197     2.39790
O1679       O  0.57749700  0.01243335  0.96777383    -0.92600
O1680       O  0.57713772  0.07707463  0.53270771    -0.91490
C1681       C  0.62651903  0.12675836  0.99545196     1.02570
C1682       C  0.62548424  0.46254462  0.50583079     1.01290
C1683       C  0.54834338  0.12696979  0.58156648     1.00680
C1684       C  0.54524322  0.12817418  0.91947963     1.02690
C1685       C  0.55125230  0.46588522  0.91656380     1.01610
C1686       C  0.54420021  0.46084054  0.58195352     1.00460
C1687       C  0.62519395  0.05028272  0.58204332     1.00520
C1688       C  0.62713724  0.04049031  0.91957857     1.03130
H1689       H  0.59041255  0.99893723  0.54614120     0.30500
O1690       O  0.57735257  0.01216869  0.53257732    -1.04760
H1691       H  0.59039470  0.09083706  0.95440553     0.32550
O1692       O  0.57726985  0.07766539  0.96786486    -1.07320
C1693       C  0.53618232  0.38940743  0.65797954     0.00090
C1694       C  0.52857077  0.38144292  0.62623575    -0.11780
C1695       C  0.53245468  0.40326890  0.60100944     0.02330
C1696       C  0.54304193  0.43502807  0.60696563     0.00010
C1697       C  0.55204054  0.44271218  0.63811941    -0.11720
C1698       C  0.54901053  0.42065313  0.66326793     0.02210
H1699       H  0.51847286  0.35815910  0.62078083     0.15190
H1700       H  0.56132906  0.46651939  0.64310029     0.15190
C1701       C  0.55984316  0.43181025  0.69366149     0.36850
C1702       C  0.52502476  0.39202403  0.56941411     0.36750
N1703       N  0.56836480  0.44221522  0.71761664    -0.43500
N1704       N  0.51946217  0.38272813  0.54411309    -0.43490
C1705       C  0.54931700  0.15215783  0.60623329     0.00090
C1706       C  0.57320499  0.17561492  0.60546229    -0.11780
C1707       C  0.57433683  0.20023444  0.62826952     0.02330
C1708       C  0.55080932  0.20196129  0.65161058     0.00010
C1709       C  0.52705408  0.17853529  0.65235195    -0.11720
C1710       C  0.52620287  0.15365846  0.63010486     0.02210
H1711       H  0.59122518  0.17438167  0.58733003     0.15190
H1712       H  0.00053121  0.17680824  0.67099480     0.15190
C1713       C  0.99507560  0.12854004  0.63047732     0.36850
C1714       C  0.60011749  0.22279391  0.62788545     0.36750
N1715       N  0.97484137  0.10991929  0.63006401    -0.43500
N1716       N  0.62095989  0.24070141  0.62774035    -0.43490
C1717       C  0.55424129  0.44073609  0.89153115     0.00090
C1718       C  0.56232999  0.45007139  0.86041021    -0.11780
C1719       C  0.56385657  0.42754845  0.83568186     0.02330
C1720       C  0.55592500  0.39511645  0.84143516     0.00010
C1721       C  0.54925152  0.38555772  0.87276056    -0.11720
C1722       C  0.54912324  0.40755677  0.89774973     0.02210
H1723       H  0.56799731  0.47503166  0.85536120     0.15190
H1724       H  0.54332582  0.36064468  0.87779519     0.15190
C1725       C  0.54293720  0.39493678  0.92917193     0.36850
C1726       C  0.57589686  0.43801948  0.80548124     0.36750
N1727       N  0.53807987  0.38464827  0.95427163    -0.43500
N1728       N  0.58649698  0.44691191  0.78178702    -0.43490
C1729       C  0.55214776  0.20020168  0.84692557     0.00090
C1730       C  0.52277848  0.18651389  0.85378768    -0.11780
C1731       C  0.51977519  0.16363553  0.87817369     0.02330
C1732       C  0.54665525  0.15350452  0.89513015     0.00010
C1733       C  0.57583529  0.16762561  0.88865787    -0.11720
C1734       C  0.57869208  0.19112067  0.86498328     0.02210
H1735       H  0.00539559  0.19706468  0.84131763     0.15190
H1736       H  0.59642515  0.16020264  0.90209837     0.15190
C1737       C  0.60909638  0.20550883  0.85947717     0.36850
C1738       C  0.98995141  0.15395981  0.88570832     0.36750
N1739       N  0.63340293  0.21720392  0.85515010    -0.43500
N1740       N  0.96476151  0.14522822  0.89142660    -0.43490
C1741       C  0.89075054  0.03626717  0.65129249     0.00090
C1742       C  0.91745647  0.01680360  0.65468114    -0.11780
C1743       C  0.94149927  0.01743501  0.63199589     0.02330
C1744       C  0.93911339  0.03762263  0.60498023     0.00010
C1745       C  0.91216947  0.05671845  0.60130571    -0.11720
C1746       C  0.88838527  0.05663293  0.62423231     0.02210
H1747       H  0.91960208  0.00103910  0.67516715     0.15190
H1748       H  0.91020147  0.07272618  0.58096841     0.15190
C1749       C  0.86289289  0.07931278  0.62021244     0.36850
C1750       C  0.96783785  0.99632357  0.63681878     0.36750
N1751       N  0.84253582  0.09754432  0.61696270    -0.43500
N1752       N  0.98851228  0.47905001  0.64139302    -0.43490
C1753       C  0.69974139  0.05715847  0.65163821     0.00090
C1754       C  0.67150470  0.07407330  0.65630061    -0.11780
C1755       C  0.64676308  0.07211536  0.63424053     0.02330
C1756       C  0.65025809  0.05344188  0.60640676     0.00010
C1757       C  0.67864318  0.03713365  0.60142156    -0.11720
C1758       C  0.70295694  0.03825970  0.62377975     0.02210
H1759       H  0.66856339  0.08862662  0.67742908     0.15190
H1760       H  0.68142627  0.02231878  0.58041035     0.15190
C1761       C  0.72988644  0.01779626  0.61827646     0.36850
C1762       C  0.61831472  0.08982303  0.64075732     0.36750
N1763       N  0.75108516  0.50129105  0.61431840    -0.43500
N1764       N  0.59559386  0.10397569  0.64644457    -0.43490
C1765       C  0.65225430  0.03763656  0.89491126     0.00090
C1766       C  0.64591493  0.04906311  0.86414710    -0.11780
C1767       C  0.66873972  0.04830806  0.84024378     0.02330
C1768       C  0.69845644  0.03358448  0.84592638     0.00010
C1769       C  0.70457131  0.02161995  0.87661966    -0.11720
C1770       C  0.68251175  0.02459669  0.90118523     0.02210
H1771       H  0.62341056  0.06028237  0.85905459     0.15190
H1772       H  0.72708726  0.01063648  0.88192529     0.15190
C1773       C  0.69267746  0.01572966  0.93276651     0.36850
C1774       C  0.66149228  0.06544915  0.81118917     0.36750
N1775       N  0.70160071  0.00962097  0.95807587    -0.43500
N1776       N  0.65556549  0.07940199  0.78808237    -0.43490
C1777       C  0.89173558  0.06066486  0.84723817     0.00090
C1778       C  0.88795217  0.03868862  0.87250802    -0.11780
C1779       C  0.91144048  0.03420229  0.89555753     0.02330
C1780       C  0.93985983  0.05165021  0.89360132     0.00010
C1781       C  0.94394283  0.07327414  0.86820450    -0.11720
C1782       C  0.92003919  0.07849881  0.84562606     0.02210
H1783       H  0.86685311  0.02408408  0.87376719     0.15190
H1784       H  0.96569462  0.08670953  0.86637755     0.15190
C1785       C  0.92472555  0.10333164  0.82205601     0.36850
C1786       C  0.90650976  0.51032808  0.91948267     0.36750
N1787       N  0.92853596  0.12334055  0.80325809    -0.43500
N1788       N  0.90253904  0.49086198  0.93879315    -0.43490
C1789       C  0.70099338  0.39459453  0.51371333     0.00090
C1790       C  0.67619654  0.39332072  0.53556575    -0.11780
C1791       C  0.65102633  0.41501782  0.53334954     0.02330
C1792       C  0.65041354  0.43816130  0.50872779     0.00010
C1793       C  0.67503576  0.43928323  0.98501937    -0.11720
C1794       C  0.70019515  0.41785293  0.98739190     0.02210
H1795       H  0.67646860  0.37528518  0.55425997     0.15190
H1796       H  0.67381043  0.45583814  0.96514580     0.15190
C1797       C  0.72380019  0.41876654  0.96277905     0.36850
C1798       C  0.62664549  0.41347623  0.55700601     0.36750
N1799       N  0.74271890  0.41961531  0.94309423    -0.43500
N1800       N  0.60733001  0.41197336  0.57621936    -0.43490
C1801       C  0.65090899  0.15183800  0.99181858     0.00090
C1802       C  0.64888815  0.17934073  0.51046288    -0.11780
C1803       C  0.67175998  0.20339840  0.50886558     0.02330
C1804       C  0.69692804  0.20080382  0.98714316     0.00010
C1805       C  0.69867353  0.17336719  0.96786026    -0.11720
C1806       C  0.67606536  0.14890772  0.97010616     0.02210
H1807       H  0.62990984  0.18151898  0.52750201     0.15190
H1808       H  0.71781956  0.17095743  0.95108278     0.15190
C1809       C  0.67893973  0.12154541  0.94926694     0.36850
C1810       C  0.66974929  0.22933279  0.53162304     0.36750
N1811       N  0.68159635  0.09977936  0.93239478    -0.43500
N1812       N  0.66807882  0.24999778  0.54994435    -0.43490
C1813       C  0.89008960  0.19687989  0.00961675     0.00090
C1814       C  0.91520377  0.19883030  0.53131845    -0.11780
C1815       C  0.94026456  0.17698390  0.52958358     0.02330
C1816       C  0.94006901  0.15212451  0.00617434     0.00010
C1817       C  0.91471363  0.15023923  0.98494945    -0.11720
C1818       C  0.89023211  0.17266568  0.98598658     0.02210
H1819       H  0.91550868  0.21755374  0.54923482     0.15190
H1820       H  0.91456064  0.13174797  0.96677179     0.15190
C1821       C  0.86687454  0.17166431  0.96099527     0.36850
C1822       C  0.96565855  0.18011549  0.55212303     0.36750
N1823       N  0.84836199  0.17103084  0.94079507    -0.43500
N1824       N  0.98596954  0.18312793  0.57019124    -0.43490
C1825       C  0.89133988  0.39359770  0.98776838     0.00090
C1826       C  0.91384694  0.39556509  0.96360620    -0.11780
C1827       C  0.93799164  0.41848430  0.96518065     0.02330
C1828       C  0.94020564  0.43908996  0.99170026     0.00010
C1829       C  0.91748899  0.43720693  0.51584087    -0.11720
C1830       C  0.89315631  0.41477363  0.51414257     0.02210
H1831       H  0.91221627  0.37959440  0.94332344     0.15190
H1832       H  0.91908006  0.45320304  0.53613738     0.15190
C1833       C  0.87134032  0.41316154  0.54036416     0.36850
C1834       C  0.95868725  0.42205254  0.93833709     0.36750
N1835       N  0.85388306  0.41193797  0.56136768    -0.43500
N1836       N  0.97468960  0.42530651  0.91639850    -0.43490
C1837       C  0.86695431  0.86841222  0.98688946     0.03380
C1838       C  0.87550160  0.83534400  0.48836135    -0.12770
C1839       C  0.85362503  0.81350603  0.50096594     0.00880
C1840       C  0.82648978  0.82678439  0.51422173    -0.11300
C1841       C  0.81373913  0.85533804  0.00251829     0.03370
C1842       C  0.83485181  0.87735211  0.98936600    -0.10720
H1843       H  0.89869699  0.82718769  0.48156271     0.08960
H1844       H  0.81278746  0.81253275  0.52986449     0.06490
H1845       H  0.82705335  0.90134356  0.98292137     0.06340
C1846       C  0.86579916  0.72237527  0.50936191     0.03380
C1847       C  0.87475460  0.75536665  0.50739081    -0.12770
C1848       C  0.85297665  0.77771560  0.49557435     0.00880
C1849       C  0.82495185  0.76518224  0.48337545    -0.11300
C1850       C  0.81198060  0.73687578  0.49574520     0.03370
C1851       C  0.83329616  0.71413273  0.50777593    -0.10720
H1852       H  0.89830113  0.76311914  0.51350497     0.08960
H1853       H  0.81078783  0.78001185  0.46867580     0.06490
H1854       H  0.82524243  0.69033626  0.51450031     0.06340
C1855       C  0.72277627  0.72487549  0.48669134     0.03380
C1856       C  0.75491086  0.71512976  0.48908576    -0.12770
C1857       C  0.77696044  0.73726331  0.50097995     0.00880
C1858       C  0.76479477  0.76586521  0.51321272    -0.11300
C1859       C  0.73768848  0.77953648  0.50023162     0.03370
C1860       C  0.71554715  0.75831877  0.48746763    -0.10720
H1861       H  0.76220824  0.69087455  0.48328972     0.08960
H1862       H  0.77903670  0.77997631  0.52842950     0.06490
H1863       H  0.69297615  0.76742946  0.97988449     0.06340
C1864       C  0.72570277  0.86957563  0.01341665     0.03380
C1865       C  0.75806878  0.87788555  0.01171764    -0.12770
C1866       C  0.77888380  0.85596225  0.99784692     0.00880
C1867       C  0.76566867  0.82867454  0.98390891    -0.11300
C1868       C  0.73805758  0.81545626  0.99612698     0.03370
C1869       C  0.71666178  0.83686983  0.00982599    -0.10720
H1870       H  0.76631003  0.90130664  0.01935161     0.08960
H1871       H  0.77930258  0.81500365  0.96773157     0.06490
H1872       H  0.69324904  0.82878038  0.01596407     0.06340
C1873       C  0.86699079  0.56132833  0.32158835     0.03380
C1874       C  0.83436112  0.55968756  0.32988084    -0.12770
C1875       C  0.81265464  0.54796295  0.30745676     0.00880
C1876       C  0.82542515  0.53549711  0.27961087    -0.11300
C1877       C  0.85325322  0.54759758  0.26690639     0.03370
C1878       C  0.87555954  0.55880944  0.28882474    -0.10720
H1879       H  0.82649900  0.56621598  0.35344115     0.08960
H1880       H  0.81101930  0.52101468  0.26503352     0.06490
H1881       H  0.89917330  0.56367044  0.28073371     0.06340
C1882       C  0.72402841  0.53430400  0.32175151     0.03380
C1883       C  0.75618973  0.53988765  0.33057098    -0.12770
C1884       C  0.77719415  0.55155838  0.30751345     0.00880
C1885       C  0.76367901  0.56109793  0.27865671    -0.11300
C1886       C  0.73756896  0.54497983  0.26646031     0.03370
C1887       C  0.71679454  0.53171588  0.28869896    -0.10720
H1888       H  0.76450992  0.53649939  0.35463755     0.08960
H1889       H  0.77654044  0.57645369  0.26336399     0.06490
H1890       H  0.69495150  0.52105657  0.28068948     0.06340
C1891       C  0.72378907  0.55638567  0.17746842     0.03380
C1892       C  0.75632331  0.55702330  0.16976353    -0.12770
C1893       C  0.77794624  0.54339447  0.19102562     0.00880
C1894       C  0.76562403  0.52836981  0.21802235    -0.11300
C1895       C  0.73738881  0.53923503  0.23119020     0.03370
C1896       C  0.71509310  0.55181015  0.20985614    -0.10720
H1897       H  0.76431105  0.56645934  0.14717163     0.08960
H1898       H  0.77996244  0.51206699  0.23119239     0.06490
H1899       H  0.69149333  0.55676124  0.21803342     0.06340
C1900       C  0.86662991  0.53726825  0.17704851     0.03380
C1901       C  0.87558180  0.54060554  0.20964970    -0.12770
C1902       C  0.85332191  0.55245218  0.23131935     0.00880
C1903       C  0.82518188  0.56390683  0.21821838    -0.11300
C1904       C  0.81261265  0.54976395  0.19098075     0.03370
C1905       C  0.83407345  0.53711300  0.16922139    -0.10720
H1906       H  0.89924477  0.53530646  0.21761192     0.08960
H1907       H  0.81086697  0.57941117  0.23198906     0.06490
H1908       H  0.82596405  0.52866095  0.14629453     0.06340
C1909       C  0.55996296  0.72562599  0.32350065     0.03380
C1910       C  0.56991622  0.75783101  0.32809338    -0.12770
C1911       C  0.58046081  0.77606461  0.30189144     0.00880
C1912       C  0.58623021  0.75877854  0.27365771    -0.11300
C1913       C  0.56698634  0.73226645  0.26670123     0.03370
C1914       C  0.55526915  0.71436278  0.29227638    -0.10720
H1915       H  0.56783069  0.76870043  0.35133923     0.08960
H1916       H  0.59769421  0.77060696  0.25390186     0.06490
H1917       H  0.54212975  0.69244978  0.28794717     0.06340
C1918       C  0.55534226  0.86315744  0.32152556     0.03380
C1919       C  0.57032498  0.83269791  0.32559159    -0.12770
C1920       C  0.57374891  0.81174890  0.29934833     0.00880
C1921       C  0.56401196  0.82355687  0.26961652    -0.11300
C1922       C  0.54382276  0.84966312  0.26694487     0.03370
C1923       C  0.53946745  0.86975983  0.29280447    -0.10720
H1924       H  0.57947484  0.82566544  0.34860662     0.08960
H1925       H  0.56805603  0.81037442  0.24804009     0.06490
H1926       H  0.52441931  0.89069948  0.29040700     0.06340
C1927       C  0.54137114  0.72407666  0.18052660     0.03380
C1928       C  0.55409007  0.71520626  0.21022671    -0.12770
C1929       C  0.54885045  0.73470844  0.23654491     0.00880
C1930       C  0.52961367  0.76179865  0.23312227    -0.11300
C1931       C  0.52135319  0.77455140  0.20304559     0.03370
C1932       C  0.52664210  0.75451506  0.17650316    -0.10720
H1933       H  0.56790002  0.69339829  0.21270507     0.08960
H1934       H  0.52509809  0.77487508  0.25467105     0.06490
H1935       H  0.51928060  0.76217803  0.15302938     0.06340
C1936       C  0.53316267  0.86226032  0.18041976     0.03380
C1937       C  0.54001542  0.86987549  0.21226762    -0.12770
C1938       C  0.52630941  0.85255726  0.23691169     0.00880
C1939       C  0.50669330  0.82674565  0.22906163    -0.11300
C1940       C  0.51333136  0.81020579  0.20072368     0.03370
C1941       C  0.52313963  0.82976166  0.17484152    -0.10720
H1942       H  0.55813354  0.88712590  0.21809415     0.08960
H1943       H  0.49492543  0.81440178  0.24832146     0.06490
H1944       H  0.52485691  0.81894214  0.15168862     0.06340
O1945       O  0.99430516  0.95408539  0.49340080    -0.79880
O1946       O  0.99413162  0.63715315  0.50341763    -0.81440
O1947       O  0.95571966  0.54224387  0.05156327    -0.78460
O1948       O  0.95618551  0.54788391  0.44708269    -0.76840
O1949       O  0.99392872  0.54789477  0.40841043    -0.78630
O1950       O  0.99327490  0.54100381  0.09063838    -0.79560
O1951       O  0.95623174  0.59803138  0.50142055    -0.80890
O1952       O  0.95632667  0.99313780  0.49615826    -0.81180
Eu1953     Eu  0.98192275  0.54520960  0.49950324     2.39200
O1954       O  0.51406090  0.57800607  0.46833760    -0.88690
O1955       O  0.51345434  0.51217464  0.03118224    -0.92290
C1956       C  0.96542056  0.96365071  0.49350469     1.02400
C1957       C  0.96522364  0.62763981  0.50335954     1.02220
C1958       C  0.96441351  0.54050198  0.08098147     1.02160
C1959       C  0.96499246  0.54873046  0.41774365     1.00020
H1960       H  0.50010503  0.59044168  0.04646427     0.29770
O1961       O  0.51335544  0.57761660  0.03286329    -1.01080
H1962       H  0.50086668  0.49944574  0.45407137     0.29800
O1963       O  0.51379045  0.51259974  0.46776120    -1.03620
O1964       O  0.59768581  0.63619674  0.49857926    -0.80840
O1965       O  0.59690547  0.95306381  0.00433675    -0.80380
O1966       O  0.54326831  0.59676822  0.09163596    -0.78820
O1967       O  0.54554996  0.59964001  0.41080991    -0.82160
O1968       O  0.54694793  0.99163798  0.40939486    -0.80010
O1969       O  0.54572840  0.98960258  0.08929148    -0.78660
O1970       O  0.63392503  0.54971280  0.05301459    -0.80180
O1971       O  0.63537882  0.54078243  0.44938925    -0.82110
O1972       O  0.59615876  0.54824239  0.09161289    -0.78850
O1973       O  0.59808316  0.54285106  0.41031409    -0.81410
O1974       O  0.54791723  0.63657111  0.05411557    -0.77260
O1975       O  0.54375612  0.95155997  0.05043294    -0.77290
O1976       O  0.54938584  0.95350834  0.44843822    -0.76930
O1977       O  0.54454750  0.63785914  0.45011160    -0.80430
O1978       O  0.63558171  0.59786396  0.99629327    -0.79860
O1979       O  0.63470715  0.99233589  0.00353947    -0.78180
Eu1980     Eu  0.54564665  0.61026254  0.50147673     2.39770
Eu1981     Eu  0.54547884  0.97991285  0.99984442     2.39570
Eu1982     Eu  0.54491682  0.54408020  0.06472099     2.38400
Eu1983     Eu  0.54564350  0.54537076  0.43554166     2.39880
Eu1984     Eu  0.60898996  0.54582976  0.00046058     2.39790
O1985       O  0.57710744  0.51251677  0.46849327    -0.92600
O1986       O  0.57717767  0.57759814  0.03345019    -0.91490
C1987       C  0.62649496  0.62671350  0.49587420     1.02570
C1988       C  0.62572840  0.96271993  0.00520180     1.01290
C1989       C  0.54547070  0.62660844  0.08305536     1.00680
C1990       C  0.54508149  0.62910392  0.42078310     1.02690
C1991       C  0.54893625  0.96201501  0.41907234     1.01610
C1992       C  0.54463682  0.95993589  0.07978981     1.00460
C1993       C  0.62497465  0.55043769  0.08229989     1.00520
C1994       C  0.62696243  0.54058759  0.41992033     1.03130
H1995       H  0.59029905  0.49913742  0.04564730     0.30500
O1996       O  0.57726512  0.51247817  0.03216384    -1.04760
H1997       H  0.59027411  0.59098522  0.45500756     0.32550
O1998       O  0.57717912  0.57777378  0.46845818    -1.07320
C1999       C  0.53871059  0.88712028  0.15448042     0.00090
C2000       C  0.53805312  0.87794687  0.12221480    -0.11780
C2001       C  0.53955723  0.90072998  0.09750593     0.02330
C2002       C  0.54414250  0.93385068  0.10444106     0.00010
C2003       C  0.54720944  0.94273254  0.13628707    -0.11720
C2004       C  0.54226761  0.92079589  0.16093518     0.02210
H2005       H  0.53530799  0.85301620  0.11560361     0.15190
H2006       H  0.55111026  0.96782360  0.14228975     0.15190
C2007       C  0.53786550  0.93534492  0.19177373     0.36850
C2008       C  0.53572541  0.88898409  0.06543979     0.36750
N2009       N  0.53434741  0.94761183  0.21617483    -0.43500
N2010       N  0.53250862  0.87944228  0.03982336    -0.43490
C2011       C  0.54448478  0.65142306  0.10814045     0.00090
C2012       C  0.56762269  0.67559728  0.10880635    -0.11780
C2013       C  0.56705571  0.69975043  0.13207327     0.02330
C2014       C  0.54245986  0.70044859  0.15439987     0.00010
C2015       C  0.51929551  0.67645824  0.15360878    -0.11720
C2016       C  0.52018688  0.65194788  0.13088874     0.02210
H2017       H  0.58648327  0.67520535  0.09152595     0.15190
H2018       H  0.00893636  0.67983223  0.17041021     0.15190
C2019       C  0.00043792  0.63099090  0.13127290     0.36850
C2020       C  0.59233999  0.72289386  0.13325790     0.36750
N2021       N  0.97971917  0.61294546  0.13207080    -0.43500
N2022       N  0.61275991  0.74127587  0.13434224    -0.43490
C2023       C  0.55119617  0.93588361  0.39486197     0.00090
C2024       C  0.55882593  0.94430599  0.36350690    -0.11780
C2025       C  0.56138004  0.92097308  0.33978480     0.02330
C2026       C  0.55531655  0.88814601  0.34682072     0.00010
C2027       C  0.54835477  0.87945378  0.37818031    -0.11720
C2028       C  0.54659792  0.90269308  0.40220132     0.02210
H2029       H  0.56340041  0.96927394  0.35743611     0.15190
H2030       H  0.54369777  0.85441647  0.38389725     0.15190
C2031       C  0.53943047  0.89133837  0.43384702     0.36850
C2032       C  0.57132155  0.93148767  0.30862441     0.36750
N2033       N  0.53370869  0.88206830  0.45913676    -0.43500
N2034       N  0.57919892  0.93997666  0.28367420    -0.43490
C2035       C  0.55488906  0.70361451  0.35074065     0.00090
C2036       C  0.52526971  0.68949635  0.35572091    -0.11780
C2037       C  0.52119030  0.66576493  0.37920565     0.02330
C2038       C  0.54730033  0.65503628  0.39702488     0.00010
C2039       C  0.57654396  0.66984762  0.39276752    -0.11720
C2040       C  0.58047675  0.69411274  0.37004369     0.02210
H2041       H  0.00220220  0.69416022  0.34050200     0.15190
H2042       H  0.59650295  0.66207726  0.40697898     0.15190
C2043       C  0.61138006  0.70788775  0.36599329     0.36850
C2044       C  0.98884683  0.65227420  0.38661156     0.36750
N2045       N  0.63608942  0.71904606  0.36274475    -0.43500
N2046       N  0.96394413  0.64386909  0.39387088    -0.43490
C2047       C  0.89063705  0.53651952  0.15136184     0.00090
C2048       C  0.91739388  0.51712926  0.15478640    -0.11780
C2049       C  0.94154937  0.51795404  0.13222688     0.02330
C2050       C  0.93925701  0.53829342  0.10531944     0.00010
C2051       C  0.91227239  0.55732347  0.10160303    -0.11720
C2052       C  0.88834906  0.55701556  0.12439144     0.02210
H2053       H  0.91948304  0.50125477  0.17519572     0.15190
H2054       H  0.91034145  0.57339000  0.08130750     0.15190
C2055       C  0.86276529  0.57957470  0.12032109     0.36850
C2056       C  0.96787380  0.49682093  0.13701217     0.36750
N2057       N  0.84233082  0.59770754  0.11703084    -0.43500
N2058       N  0.98980140  0.97933069  0.14212472    -0.43490
C2059       C  0.69947345  0.55723201  0.15187831     0.00090
C2060       C  0.67129961  0.57428246  0.15648800    -0.11780
C2061       C  0.64655343  0.57234120  0.13442834     0.02330
C2062       C  0.64997175  0.55349027  0.10671379     0.00010
C2063       C  0.67827401  0.53701787  0.10179945    -0.11720
C2064       C  0.70260795  0.53817793  0.12411706     0.02210
H2065       H  0.66843329  0.58895775  0.17754489     0.15190
H2066       H  0.68098955  0.52209820  0.08085029     0.15190
C2067       C  0.72949011  0.51763374  0.11865901     0.36850
C2068       C  0.61821802  0.59032721  0.14072560     0.36750
N2069       N  0.75102354  0.00106731  0.11400163    -0.43500
N2070       N  0.59557805  0.60472412  0.14615297    -0.43490
C2071       C  0.65207342  0.53772817  0.39520530     0.00090
C2072       C  0.64570019  0.54909627  0.36441979    -0.11780
C2073       C  0.66851439  0.54835086  0.34048986     0.02330
C2074       C  0.69826693  0.53369155  0.34615520     0.00010
C2075       C  0.70441463  0.52177870  0.37686299    -0.11720
C2076       C  0.68236807  0.52475196  0.40145134     0.02210
H2077       H  0.62317431  0.56026694  0.35932516     0.15190
H2078       H  0.72695388  0.51084661  0.38216828     0.15190
C2079       C  0.69261290  0.51599839  0.43303428     0.36850
C2080       C  0.66121882  0.56544388  0.31142050     0.36750
N2081       N  0.70161845  0.51000060  0.45833882    -0.43500
N2082       N  0.65526067  0.57935923  0.28829978    -0.43490
C2083       C  0.89164629  0.56080274  0.34705571     0.00090
C2084       C  0.88790107  0.53883522  0.37232996    -0.11780
C2085       C  0.91148329  0.53425185  0.39524458     0.02330
C2086       C  0.93995791  0.55158621  0.39313166     0.00010
C2087       C  0.94401723  0.57317794  0.36771227    -0.11720
C2088       C  0.92001332  0.57851698  0.34528143     0.02210
H2089       H  0.86675706  0.52430849  0.37369372     0.15190
H2090       H  0.96580962  0.58653101  0.36577415     0.15190
C2091       C  0.92467322  0.60334704  0.32170274     0.36850
C2092       C  0.90701133  0.01071059  0.41928589     0.36750
N2093       N  0.92847079  0.62335189  0.30289809    -0.43500
N2094       N  0.90320435  0.99114519  0.43853331    -0.43490
C2095       C  0.70135095  0.89488674  0.01308344     0.00090
C2096       C  0.67695350  0.89407942  0.03537281    -0.11780
C2097       C  0.65183638  0.91582982  0.03322662     0.02330
C2098       C  0.65068398  0.93834869  0.00807555     0.00010
C2099       C  0.67475203  0.93872064  0.48519308    -0.11720
C2100       C  0.70007439  0.91750819  0.48755746     0.02210
H2101       H  0.67758836  0.87648065  0.05446259     0.15190
H2102       H  0.67336201  0.95522281  0.46528669     0.15190
C2103       C  0.72361046  0.91854516  0.46287929     0.36850
C2104       C  0.62836399  0.91529817  0.05778353     0.36750
N2105       N  0.74247130  0.91949847  0.44314188    -0.43500
N2106       N  0.61001621  0.91466115  0.07796263    -0.43490
C2107       C  0.65088932  0.65180639  0.49213273     0.00090
C2108       C  0.64913293  0.68009031  0.01119937    -0.11780
C2109       C  0.67210448  0.70402129  0.00940250     0.02330
C2110       C  0.69698397  0.70073281  0.48733807     0.00010
C2111       C  0.69868054  0.67325153  0.46811131    -0.11720
C2112       C  0.67603537  0.64882310  0.47040740     0.02210
H2113       H  0.63025264  0.68241293  0.02832899     0.15190
H2114       H  0.71781586  0.67078383  0.45132984     0.15190
C2115       C  0.67886546  0.62143935  0.44959347     0.36850
C2116       C  0.67031523  0.73006398  0.03205716     0.36750
N2117       N  0.68149498  0.59966341  0.43273058    -0.43500
N2118       N  0.66882190  0.75082363  0.05028973    -0.43490
C2119       C  0.89024828  0.69691475  0.50929600     0.00090
C2120       C  0.91557818  0.69851312  0.03138989    -0.11780
C2121       C  0.94057760  0.67657391  0.02951547     0.02330
C2122       C  0.94022241  0.65220022  0.50562945     0.00010
C2123       C  0.91483230  0.65035938  0.48444900    -0.11720
C2124       C  0.89034633  0.67276696  0.48560054     0.02210
H2125       H  0.91589624  0.71705420  0.04948811     0.15190
H2126       H  0.91465063  0.63191548  0.46622448     0.15190
C2127       C  0.86692815  0.67181337  0.46066556     0.36850
C2128       C  0.96586244  0.67920942  0.05225826     0.36750
N2129       N  0.84836334  0.67121686  0.44051336    -0.43500
N2130       N  0.98609438  0.68169724  0.07050258    -0.43490
C2131       C  0.89162568  0.89366080  0.48725740     0.00090
C2132       C  0.91444911  0.89505578  0.46334286    -0.11780
C2133       C  0.93866507  0.91793473  0.46472354     0.02330
C2134       C  0.94060872  0.93917020  0.49078039     0.00010
C2135       C  0.91759478  0.93703755  0.01618321    -0.11720
C2136       C  0.89333433  0.91455675  0.01435309     0.02210
H2137       H  0.91303252  0.87864061  0.44339339     0.15190
H2138       H  0.91913634  0.95293791  0.03655735     0.15190
C2139       C  0.87146293  0.91279076  0.04052045     0.36850
C2140       C  0.95975164  0.92076562  0.43811301     0.36750
N2141       N  0.85395757  0.91145589  0.06147673    -0.43500
N2142       N  0.97609434  0.92342236  0.41635633    -0.43490
C2143       C  0.86708701  0.86849168  0.48657743     0.03380
C2144       C  0.87543752  0.83532021  0.98884718    -0.12770
C2145       C  0.85362157  0.81354064  0.00159646     0.00880
C2146       C  0.82644594  0.82684707  0.01477412    -0.11300
C2147       C  0.81377507  0.85530348  0.50207432     0.03370
C2148       C  0.83494343  0.87741383  0.48908845    -0.10720
H2149       H  0.89866302  0.82718427  0.98212518     0.08960
H2150       H  0.81274936  0.81265949  0.03048263     0.06490
H2151       H  0.82713707  0.90141266  0.48268555     0.06340
C2152       C  0.86585924  0.72244512  0.01004929     0.03380
C2153       C  0.87479544  0.75543791  0.00813057    -0.12770
C2154       C  0.85303068  0.77776838  0.99624137     0.00880
C2155       C  0.82507560  0.76524072  0.98391546    -0.11300
C2156       C  0.81207859  0.73694799  0.99624879     0.03370
C2157       C  0.83336025  0.71418996  0.00833519    -0.10720
H2158       H  0.89832041  0.76319628  0.01432461     0.08960
H2159       H  0.81092094  0.78011129  0.96923506     0.06490
H2160       H  0.82529384  0.69037716  0.01498550     0.06340
C2161       C  0.72298321  0.72515895  0.98665000     0.03380
C2162       C  0.75505839  0.71531701  0.98926888    -0.12770
C2163       C  0.77705224  0.73737863  0.00135706     0.00880
C2164       C  0.76484713  0.76601001  0.01351563    -0.11300
C2165       C  0.73781499  0.77970592  0.00037663     0.03370
C2166       C  0.71578970  0.75857375  0.98736642    -0.10720
H2167       H  0.76232944  0.69103952  0.98352502     0.08960
H2168       H  0.77901076  0.78010232  0.02882098     0.06490
H2169       H  0.69268560  0.76714463  0.48010954     0.06340
C2170       C  0.72567179  0.86953779  0.51308973     0.03380
C2171       C  0.75804792  0.87784292  0.51132677    -0.12770
C2172       C  0.77886242  0.85588604  0.49749607     0.00880
C2173       C  0.76559880  0.82852903  0.48369286    -0.11300
C2174       C  0.73797673  0.81532919  0.49595661     0.03370
C2175       C  0.71661432  0.83681104  0.50961545    -0.10720
H2176       H  0.76629208  0.90129242  0.51887228     0.08960
H2177       H  0.77916916  0.81484789  0.46748822     0.06490
H2178       H  0.69320102  0.82875762  0.51579521     0.06340
C2179       C  0.86693694  0.56148995  0.82155048     0.03380
C2180       C  0.83431679  0.55974898  0.82978801    -0.12770
C2181       C  0.81270639  0.54791423  0.80734904     0.00880
C2182       C  0.82554480  0.53545398  0.77952763    -0.11300
C2183       C  0.85336417  0.54762887  0.76687505     0.03370
C2184       C  0.87558510  0.55895707  0.78881707    -0.10720
H2185       H  0.82639025  0.56628810  0.85332378     0.08960
H2186       H  0.81117733  0.52096701  0.76490203     0.06490
H2187       H  0.89919808  0.56390754  0.78077234     0.06340
C2188       C  0.72412001  0.53427431  0.82154684     0.03380
C2189       C  0.75625925  0.53985111  0.83040642    -0.12770
C2190       C  0.77727167  0.55148534  0.80735487     0.00880
C2191       C  0.76379225  0.56099463  0.77848429    -0.11300
C2192       C  0.73770251  0.54485382  0.76629905     0.03370
C2193       C  0.71691749  0.53159920  0.78851124    -0.10720
H2194       H  0.76453658  0.53653225  0.85449892     0.08960
H2195       H  0.77667806  0.57629934  0.76316767     0.06490
H2196       H  0.69505576  0.52097711  0.78050190     0.06340
C2197       C  0.72404728  0.55671904  0.67748367     0.03380
C2198       C  0.75657040  0.55733080  0.66981250    -0.12770
C2199       C  0.77812254  0.54350227  0.69100232     0.00880
C2200       C  0.76576250  0.52831226  0.71788717    -0.11300
C2201       C  0.73751428  0.53913671  0.73106139     0.03370
C2202       C  0.71528576  0.55192186  0.70980088    -0.10720
H2203       H  0.76459735  0.56687015  0.64727599     0.08960
H2204       H  0.78010127  0.51197766  0.73103244     0.06490
H2205       H  0.69168369  0.55687707  0.71797330     0.06340
C2206       C  0.86670023  0.53711109  0.67709776     0.03380
C2207       C  0.87568619  0.54052901  0.70967244    -0.12770
C2208       C  0.85347269  0.55252041  0.73130813     0.00880
C2209       C  0.82535760  0.56402443  0.71818948    -0.11300
C2210       C  0.81276296  0.54982623  0.69098925     0.03370
C2211       C  0.83416036  0.53700637  0.66929019    -0.10720
H2212       H  0.89933706  0.53517574  0.71763683     0.08960
H2213       H  0.81109449  0.57962791  0.73191923     0.06490
H2214       H  0.82601697  0.52849387  0.64639636     0.06340
C2215       C  0.56053706  0.72656687  0.82311018     0.03380
C2216       C  0.57059898  0.75872100  0.82750793    -0.12770
C2217       C  0.58107681  0.77680409  0.80122270     0.00880
C2218       C  0.58667384  0.75943786  0.77299893    -0.11300
C2219       C  0.56743277  0.73285539  0.76625245     0.03370
C2220       C  0.55577748  0.71510092  0.79196817    -0.10720
H2221       H  0.56856698  0.76969955  0.85070937     0.08960
H2222       H  0.59797744  0.77123709  0.75313096     0.06490
H2223       H  0.54257163  0.69319710  0.78780422     0.06340
C2224       C  0.55543312  0.86350410  0.82119100     0.03380
C2225       C  0.57079115  0.83324625  0.82503477    -0.12770
C2226       C  0.57428020  0.81243448  0.79870895     0.00880
C2227       C  0.56428502  0.82420426  0.76906592    -0.11300
C2228       C  0.54383883  0.85012160  0.76659063     0.03370
C2229       C  0.53939864  0.87008502  0.79255281    -0.10720
H2230       H  0.58012490  0.82623729  0.84798211     0.08960
H2231       H  0.56830571  0.81106526  0.74745228     0.06490
H2232       H  0.52415777  0.89089404  0.79030577     0.06340
C2233       C  0.54149339  0.72453403  0.68017805     0.03380
C2234       C  0.55437213  0.71571051  0.70982663    -0.12770
C2235       C  0.54914458  0.73517884  0.73618278     0.00880
C2236       C  0.52979625  0.76219550  0.73285091    -0.11300
C2237       C  0.52133442  0.77489471  0.70281649     0.03370
C2238       C  0.52658358  0.75488645  0.67624654    -0.10720
H2239       H  0.56829253  0.69396930  0.71223658     0.08960
H2240       H  0.52537316  0.77529461  0.75440923     0.06490
H2241       H  0.51906930  0.76251526  0.65281116     0.06340
C2242       C  0.53295660  0.86254216  0.68011837     0.03380
C2243       C  0.53984060  0.87021420  0.71193938    -0.12770
C2244       C  0.52619119  0.85294091  0.73663915     0.00880
C2245       C  0.50662503  0.82705750  0.72887733    -0.11300
C2246       C  0.51319854  0.81051404  0.70051923     0.03370
C2247       C  0.52290929  0.83005334  0.67459650    -0.10720
H2248       H  0.55799012  0.88745084  0.71770661     0.08960
H2249       H  0.49496676  0.81468637  0.74818978     0.06490
H2250       H  0.52456939  0.81921420  0.65144945     0.06340
O2251       O  0.99379088  0.95355009  0.99609429    -0.79880
O2252       O  0.99419922  0.63719145  0.00382475    -0.81440
O2253       O  0.95560414  0.54199397  0.55152132    -0.78460
O2254       O  0.95610560  0.54815077  0.94706989    -0.76840
O2255       O  0.99373135  0.54837001  0.90825812    -0.78630
O2256       O  0.99310526  0.54049743  0.59063375    -0.79560
O2257       O  0.95622790  0.59816747  0.00152896    -0.80890
O2258       O  0.95593558  0.99283244  0.99727852    -0.81180
Eu2259     Eu  0.98193550  0.54541594  0.99945726     2.39200
O2260       O  0.51394038  0.57948183  0.96812606    -0.88690
O2261       O  0.51314317  0.51205446  0.53281671    -0.92290
C2262       C  0.96498446  0.96328740  0.99536442     1.02400
C2263       C  0.96527010  0.62773472  0.00367999     1.02220
C2264       C  0.96426613  0.54007993  0.58093362     1.02160
C2265       C  0.96483382  0.54910148  0.91770490     1.00020
H2266       H  0.50014644  0.59041947  0.54677427     0.29770
O2267       O  0.51336619  0.57737175  0.53334879    -1.01080
H2268       H  0.50114608  0.50101500  0.95212520     0.29800
O2269       O  0.51394539  0.51399652  0.96609692    -1.03620
O2270       O  0.59776957  0.63699424  0.99894960    -0.80840
O2271       O  0.59685568  0.95317066  0.50392155    -0.80380
O2272       O  0.54337319  0.59722096  0.59179055    -0.78820
O2273       O  0.54558920  0.60218035  0.91091634    -0.82160
O2274       O  0.54704442  0.99120885  0.90982174    -0.80010
O2275       O  0.54579887  0.98966066  0.58893474    -0.78660
O2276       O  0.63403189  0.54950986  0.55328093    -0.80180
O2277       O  0.63552063  0.54186652  0.94899059    -0.82110
O2278       O  0.59643592  0.54876112  0.59206657    -0.78850
O2279       O  0.59835967  0.54522305  0.90988273    -0.81410
O2280       O  0.54793052  0.63648348  0.55371459    -0.77260
O2281       O  0.54374754  0.95167489  0.55002854    -0.77290
O2282       O  0.54939260  0.95302756  0.94880294    -0.76930
O2283       O  0.54458744  0.63975117  0.95077802    -0.80430
O2284       O  0.63548987  0.59704974  0.49621803    -0.79860
O2285       O  0.63472454  0.99235930  0.50309766    -0.78180
Eu2286     Eu  0.54567628  0.61113261  0.00163158     2.39770
Eu2287     Eu  0.54547753  0.98017977  0.49950472     2.39570
Eu2288     Eu  0.54504250  0.54424577  0.56565936     2.38400
Eu2289     Eu  0.54583176  0.54781956  0.93487594     2.39880
Eu2290     Eu  0.60885400  0.54492361  0.50095291     2.39790
O2291       O  0.57739287  0.51433654  0.96708320    -0.92600
O2292       O  0.57722116  0.57719289  0.53366626    -0.91490
C2293       C  0.62656709  0.62749985  0.99612494     1.02570
C2294       C  0.62570246  0.96275908  0.50476311     1.01290
C2295       C  0.54551429  0.62692572  0.58280702     1.00680
C2296       C  0.54508678  0.63144075  0.92132165     1.02690
C2297       C  0.54899002  0.96158689  0.91943839     1.01610
C2298       C  0.54465898  0.96001633  0.57939649     1.00460
C2299       C  0.62520259  0.55070466  0.58258237     1.00520
C2300       C  0.62715967  0.54221214  0.91952179     1.03130
H2301       H  0.59039084  0.49896242  0.54724716     0.30500
O2302       O  0.57733234  0.51209859  0.53358966    -1.04760
H2303       H  0.59058272  0.59276939  0.95503601     0.32550
O2304       O  0.57749497  0.57937199  0.96831291    -1.07320
C2305       C  0.53855397  0.88732969  0.65413968     0.00090
C2306       C  0.53792287  0.87809554  0.62188770    -0.11780
C2307       C  0.53949741  0.90083464  0.59714616     0.02330
C2308       C  0.54413197  0.93394914  0.60404663     0.00010
C2309       C  0.54719796  0.94287456  0.63587960    -0.11720
C2310       C  0.54217249  0.92100259  0.66054962     0.02210
H2311       H  0.53514906  0.85315926  0.61531073     0.15190
H2312       H  0.55116428  0.96796079  0.64185776     0.15190
C2313       C  0.53776121  0.93562455  0.69135546     0.36850
C2314       C  0.53569338  0.88905904  0.56508903     0.36750
N2315       N  0.53424718  0.94794495  0.71573092    -0.43500
N2316       N  0.53249837  0.87948695  0.53948132    -0.43490
C2317       C  0.54443647  0.65198287  0.60766201     0.00090
C2318       C  0.56760072  0.67612559  0.60831414    -0.11780
C2319       C  0.56710517  0.70023732  0.63163874     0.02330
C2320       C  0.54254404  0.70093618  0.65401392     0.00010
C2321       C  0.51933348  0.67700289  0.65320113    -0.11720
C2322       C  0.52017050  0.65251953  0.63045745     0.02210
H2323       H  0.58646205  0.67569497  0.59103660     0.15190
H2324       H  0.00081133  0.67708676  0.67032880     0.15190
C2325       C  0.99521097  0.62893567  0.62973333     0.36850
C2326       C  0.59244731  0.72330946  0.63286022     0.36750
N2327       N  0.97499871  0.61028792  0.62942591    -0.43500
N2328       N  0.61291696  0.74163082  0.63398105    -0.43490
C2329       C  0.55124675  0.93560839  0.89508217     0.00090
C2330       C  0.55875199  0.94428806  0.86375292    -0.11780
C2331       C  0.56122597  0.92116720  0.83983763     0.02330
C2332       C  0.55526598  0.88829183  0.84665541     0.00010
C2333       C  0.54841046  0.87933126  0.87797886    -0.11720
C2334       C  0.54668549  0.90237750  0.90218942     0.02210
H2335       H  0.56327279  0.96930387  0.85783684     0.15190
H2336       H  0.54383344  0.85423748  0.88351716     0.15190
C2337       C  0.53959187  0.89081434  0.93377738     0.36850
C2338       C  0.57098473  0.93194108  0.80870249     0.36750
N2339       N  0.53392204  0.88139062  0.95902457    -0.43500
N2340       N  0.57871578  0.94062997  0.78377151    -0.43490
C2341       C  0.55525847  0.70496174  0.85058059     0.00090
C2342       C  0.52561719  0.69087511  0.85548492    -0.11780
C2343       C  0.52134829  0.66763852  0.87938501     0.02330
C2344       C  0.54726156  0.65753870  0.89782467     0.00010
C2345       C  0.57648995  0.67237313  0.89367876    -0.11720
C2346       C  0.58063839  0.69605258  0.87043571     0.02210
H2347       H  0.00545236  0.69749467  0.84063922     0.15190
H2348       H  0.59632149  0.66490669  0.90822975     0.15190
C2349       C  0.61159882  0.70968497  0.86635489     0.36850
C2350       C  0.98997314  0.65436115  0.88500057     0.36750
N2351       N  0.63636232  0.72070290  0.86306508    -0.43500
N2352       N  0.96477321  0.64568369  0.89075309    -0.43490
C2353       C  0.89063989  0.53627536  0.65138633     0.00090
C2354       C  0.91734126  0.51681468  0.65478496    -0.11780
C2355       C  0.94143426  0.51754091  0.63217048     0.02330
C2356       C  0.93910897  0.53783511  0.60523493     0.00010
C2357       C  0.91216844  0.55692666  0.60154095    -0.11720
C2358       C  0.88832096  0.55673429  0.62439278     0.02210
H2359       H  0.91943980  0.50097638  0.67522109     0.15190
H2360       H  0.91023979  0.57298532  0.58123877     0.15190
C2361       C  0.86280264  0.57938234  0.62036687     0.36850
C2362       C  0.96773823  0.49638183  0.63695246     0.36750
N2363       N  0.84242143  0.59758458  0.61711192    -0.43500
N2364       N  0.98865223  0.97904847  0.64129425    -0.43490
C2365       C  0.69979491  0.55767742  0.65189442     0.00090
C2366       C  0.67169747  0.57484785  0.65649489    -0.11780
C2367       C  0.64693445  0.57291743  0.63447553     0.02330
C2368       C  0.65028177  0.55394432  0.60683578     0.00010
C2369       C  0.67853083  0.53738832  0.60191333    -0.11720
C2370       C  0.70287973  0.53855005  0.62418597     0.02210
H2371       H  0.66889639  0.58956875  0.67753128     0.15190
H2372       H  0.68117591  0.52236968  0.58102328     0.15190
C2373       C  0.72969927  0.51790578  0.61876763     0.36850
C2374       C  0.61864742  0.59099950  0.64074902     0.36750
N2375       N  0.75136023  0.00131833  0.61376717    -0.43500
N2376       N  0.59604008  0.60546849  0.64613468    -0.43490
C2377       C  0.65223880  0.53895455  0.89485939     0.00090
C2378       C  0.64598800  0.55021536  0.86401809    -0.11780
C2379       C  0.66876368  0.54899508  0.84009607     0.02330
C2380       C  0.69833339  0.53400388  0.84587172     0.00010
C2381       C  0.70434455  0.52215894  0.87662055    -0.11720
C2382       C  0.68234643  0.52554877  0.90117980     0.02210
H2383       H  0.62359926  0.56163744  0.85884774     0.15190
H2384       H  0.72675387  0.51096381  0.88196808     0.15190
C2385       C  0.69246477  0.51673056  0.93279220     0.36850
C2386       C  0.66163417  0.56593083  0.81089549     0.36750
N2387       N  0.70134399  0.51064659  0.95812351    -0.43500
N2388       N  0.65579850  0.57971354  0.78766663    -0.43490
C2389       C  0.89151467  0.56105070  0.84705927     0.00090
C2390       C  0.88782368  0.53899726  0.87226843    -0.11780
C2391       C  0.91138705  0.53447499  0.89520367     0.02330
C2392       C  0.93976420  0.55197289  0.89316762     0.00010
C2393       C  0.94375131  0.57367935  0.86783585    -0.11720
C2394       C  0.91977339  0.57893659  0.84537459     0.02210
H2395       H  0.86675382  0.52434918  0.87354953     0.15190
H2396       H  0.96548612  0.58713679  0.86596717     0.15190
C2397       C  0.92434965  0.60381675  0.82182957     0.36850
C2398       C  0.90643987  0.01013981  0.91988909     0.36750
N2399       N  0.92807428  0.62385708  0.80304663    -0.43500
N2400       N  0.90237663  0.99074009  0.93924453    -0.43490
C2401       C  0.70131222  0.89486295  0.51271975     0.00090
C2402       C  0.67690064  0.89409257  0.53499919    -0.11780
C2403       C  0.65178495  0.91585114  0.53282168     0.02330
C2404       C  0.65063238  0.93833897  0.50764027     0.00010
C2405       C  0.67479061  0.93876876  0.98561766    -0.11720
C2406       C  0.70010677  0.91755289  0.98794229     0.02210
H2407       H  0.67752704  0.87652146  0.55411379     0.15190
H2408       H  0.67338690  0.95529376  0.96572978     0.15190
C2409       C  0.72361940  0.91859640  0.96324041     0.36850
C2410       C  0.62832125  0.91536805  0.55738770     0.36750
N2411       N  0.74245655  0.91955247  0.94347994    -0.43500
N2412       N  0.60998393  0.91476927  0.57757760    -0.43490
C2413       C  0.65095137  0.65250264  0.99230646     0.00090
C2414       C  0.64892932  0.67943537  0.51098123    -0.11780
C2415       C  0.67182549  0.70348186  0.50924503     0.02330
C2416       C  0.69715364  0.70116400  0.98738498     0.00010
C2417       C  0.69870383  0.67373766  0.96811307    -0.11720
C2418       C  0.67599525  0.64942252  0.97046985     0.02210
H2419       H  0.62997621  0.68171455  0.52803348     0.15190
H2420       H  0.71778106  0.67122453  0.95126783     0.15190
C2421       C  0.67869781  0.62205207  0.94962377     0.36850
C2422       C  0.66984474  0.72953933  0.53186415     0.36750
N2423       N  0.68128327  0.60030308  0.93272314    -0.43500
N2424       N  0.66820145  0.75030909  0.55007228    -0.43490
C2425       C  0.89033173  0.69700313  0.00989502     0.00090
C2426       C  0.91562968  0.69868995  0.53058522    -0.11780
C2427       C  0.94065406  0.67680175  0.52874689     0.02330
C2428       C  0.94029749  0.65230135  0.00606680     0.00010
C2429       C  0.91506145  0.65074176  0.98468065    -0.11720
C2430       C  0.89056636  0.67312314  0.98594075     0.02210
H2431       H  0.91606701  0.71744867  0.54846351     0.15190
H2432       H  0.91499091  0.63251290  0.96624571     0.15190
C2433       C  0.86725471  0.67240390  0.96089321     0.36850
C2434       C  0.96618075  0.67999165  0.55111452     0.36750
N2435       N  0.84877174  0.67198097  0.94065932    -0.43500
N2436       N  0.98658382  0.68310140  0.56905617    -0.43490
C2437       C  0.89139490  0.89354313  0.98798506     0.00090
C2438       C  0.91393885  0.89561469  0.96387821    -0.11780
C2439       C  0.93808391  0.91849673  0.96563867     0.02330
C2440       C  0.94023741  0.93892834  0.99228684     0.00010
C2441       C  0.91770668  0.93791381  0.51449838    -0.11720
C2442       C  0.89342781  0.91538199  0.51307680     0.02210
H2443       H  0.91234442  0.87974912  0.94351187     0.15190
H2444       H  0.91908469  0.95433285  0.53447842     0.15190
C2445       C  0.87145300  0.91425373  0.53918663     0.36850
C2446       C  0.95885926  0.92219827  0.93887557     0.36750
N2447       N  0.85388094  0.91340995  0.56010969    -0.43500
N2448       N  0.97492342  0.92555771  0.91699928    -0.43490
loop_ 
_geom_bond_atom_site_label_1 
_geom_bond_atom_site_label_2 
_geom_bond_distance 
_geom_bond_site_symmetry_2 
_ccdc_geom_bond_type 
C1            C6   1.421       .  A
C1          C308   1.423       .  A
C1          C601   1.477       .  S
C2            C3   1.403       .  A
C2          C307   1.422       .  A
C2            H7   1.083       .  S
C3            C4   1.398       .  A
C3           C12   1.503       .  S
C4          C311   1.397       .  A
C4            H8   1.060       .  S
C5            C6   1.397   1_554  A
C5          C310   1.396       .  A
C5           C30   1.497   1_554  S
C6            H9   1.083       .  S
C10          C11   1.424       .  A
C10          C15   1.426       .  A
C10         C283   1.483       .  S
C11          C12   1.400       .  A
C11          H16   1.083       .  S
C12          C13   1.397       .  A
C13          C14   1.398       .  A
C13          H17   1.059       .  S
C14          C15   1.402       .  A
C14          C21   1.506       .  S
C15          H18   1.083       .  S
C19          C20   1.428       .  A
C19          C24   1.421       .  A
C19         C274   1.484       .  S
C20          C21   1.405       .  A
C20          H25   1.082       .  S
C21          C22   1.396       .  A
C22          C23   1.395       .  A
C22          H26   1.058       .  S
C23          C24   1.395       .  A
C23         C338   1.494       .  S
C24         H333   1.083       .  S
H27         C330   1.083       .  S
C28          C29   1.422       .  A
C28          C33   1.420       .  A
C28         C259   1.476       .  S
C29          C30   1.400   1_554  A
C29          H34   1.083       .  S
C30          C31   1.396       .  A
C31          C32   1.396       .  A
C31          H35   1.061       .  S
C32          C33   1.399   1_556  A
C32         C329   1.496   1_556  S
C33          H36   1.083       .  S
C37          C38   1.433       .  A
C37          C42   1.431       .  A
C37         C247   1.496       .  S
C38          C39   1.406       .  A
C38          H43   1.083       .  S
C39          C40   1.394       .  A
C39          C48   1.515       .  S
C40          C41   1.394       .  A
C40          H44   1.056       .  S
C41          C42   1.402       .  A
C41          C66   1.510       .  S
C42          H45   1.081       .  S
C46          C47   1.435       .  A
C46          C51   1.427       .  A
C46         C238   1.503       .  S
C47          C48   1.406       .  A
C47          H52   1.081       .  S
C48          C49   1.398       .  A
C49          C50   1.394       .  A
C49          H53   1.058       .  S
C50          C51   1.400       .  A
C50          C59   1.503       .  S
C51          H54   1.083       .  S
C55          C56   1.422       .  A
C55          C60   1.425       .  A
C55         C223   1.489       .  S
C56          C57   1.399       .  A
C56          H61   1.083       .  S
C57          C58   1.398       .  A
C57          C68   1.497       .  S
C58          C59   1.400       .  A
C58          H62   1.065       .  S
C59          C60   1.403       .  A
C60          H63   1.082       .  S
C64          C65   1.430       .  A
C64          C69   1.422       .  A
C64         C211   1.489       .  S
C65          C66   1.406       .  A
C65          H70   1.082       .  S
C66          C67   1.399       .  A
C67          C68   1.395       .  A
C67          H71   1.061       .  S
C68          C69   1.398       .  A
C69          H72   1.083       .  S
C73          C74   1.414       .  A
C73          C78   1.410       .  A
C73         C199   1.479       .  S
C74          C75   1.409       .  A
C74          H79   1.083       .  S
C75          C76   1.412       .  A
C75          C84   1.510       .  S
C76          C77   1.403       .  A
C76          H80   1.082       .  S
C77          C78   1.400       .  A
C77          C93   1.486       .  S
C78          H81   1.083       .  S
C82          C83   1.424       .  A
C82          C87   1.409       .  A
C82         C190   1.488       .  S
C83          C84   1.415       .  A
C83          H88   1.082       .  S
C84          C85   1.403       .  A
C85          C86   1.387       .  A
C85          H89   1.076       .  S
C86          C87   1.387       .  A
C86         C102   1.470       .  S
C87          H90   1.084       .  S
C91          C92   1.409       .  A
C91          C96   1.419       .  A
C91         C178   1.477       .  S
C92          C93   1.393       .  A
C92          H97   1.084       .  S
C93          C94   1.397       .  A
C94          C95   1.414       .  A
C94          H98   1.076       .  S
C95          C96   1.413       .  A
C95         C104   1.521       .  S
C96          H99   1.082       .  S
C100        C101   1.407       .  A
C100        C105   1.434       .  A
C100        C163   1.519       .  S
C101        C102   1.390       .  A
C101        H106   1.080       .  S
C102        C103   1.398       .  A
C103        C104   1.408       .  A
C103        H107   1.082   1_455  S
C104        C105   1.420       .  A
C105        H108   1.077       .  S
O109        C120   1.290       .  A
O109      Eu1675   2.459       .  S
O110        C121   1.292       .  A
O110      Eu1368   2.466       .  S
O111        C122   1.293       .  A
O111       Eu423   2.466   1_554  S
O112        C123   1.292       .  A
O112       Eu117   2.463       .  S
O113        C123   1.294       .  A
O113      Eu1371   2.471       .  S
O114        C122   1.292       .  A
O114      Eu1370   2.462       .  S
O115        C121   1.290       .  A
O115       Eu117   2.449       .  S
O116        C120   1.288       .  A
O116       Eu729   2.442       .  S
Eu117       O417   2.467       .  S
Eu117       O728   2.443   1_545  S
Eu117      O1351   2.356       .  S
Eu117      O1649   2.350       .  S
Eu117      O1342   2.349       .  S
Eu117      O1655   2.353       .  S
O118       Eu147   2.355       .  S
O118       Eu144   2.353       .  S
O118      Eu1341   2.351   1_455  S
O119       Eu146   2.353       .  S
O119      Eu1647   2.352   1_455  S
O119       Eu757   2.346   1_545  S
C120        C298   1.466       .  S
C121        C286   1.476       .  S
C122        C214   1.485       .  S
C123        C250   1.487       .  S
H124        O125   0.966       .  S
O125       Eu146   2.352       .  S
O125      Eu1647   2.352   1_455  S
O125       Eu450   2.356       .  S
H126        O127   0.966       .  S
O127       Eu147   2.354       .  S
O127      Eu1341   2.356   1_455  S
O127      Eu1063   2.359   1_545  S
O128        C151   1.293       .  A
O128       Eu144   2.465       .  S
O129        C152   1.291       .  A
O129       Eu145   2.462   1_554  S
O130        C153   1.292       .  A
O130       Eu146   2.463       .  S
O131        C154   1.293       .  A
O131       Eu147   2.469       .  S
O132        C155   1.296       .  A
O132       Eu759   2.479       .  S
O133        C156   1.296       .  A
O133       Eu758   2.478       .  S
O134        C157   1.291       .  A
O134       Eu148   2.454       .  S
O135        C158   1.289       .  A
O135       Eu454   2.452       .  S
O136        C157   1.291       .  A
O136       Eu146   2.457       .  S
O137        C158   1.295       .  A
O137       Eu147   2.475       .  S
O138        C153   1.291       .  A
O138       Eu450   2.458       .  S
O139        C156   1.285       .  A
O139       Eu145   2.432   1_554  S
O140        C155   1.285       .  A
O140       Eu451   2.430       .  S
O141        C154   1.288       .  A
O141       Eu144   2.445       .  S
O142        C457   1.289       .  A
O142       Eu148   2.451   1_556  S
O143        C152   1.289       .  A
O143       Eu760   2.447       .  S
Eu144      O1334   2.463   1_455  S
Eu144       O444   2.453       .  S
Eu144       O162   2.358       .  S
Eu144       O431   2.357       .  S
Eu144       O456   2.346       .  S
Eu145      O1639   2.462   1_455  S
Eu145       O446   2.427       .  S
Eu145       O731   2.348   1_556  S
Eu145      O1045   2.357       .  S
Eu145      O1067   2.346       .  S
Eu145       O772   2.354   1_556  S
Eu146      O1338   2.458   1_455  S
Eu146       O745   2.475   1_545  S
Eu146       O160   2.347       .  S
Eu146       O150   2.358       .  S
Eu147      O1337   2.473   1_455  S
Eu147       O744   2.461   1_545  S
Eu147       O149   2.355       .  S
Eu147       O162   2.347       .  S
Eu148       O441   2.456   1_554  S
Eu148       O755   2.449   1_545  S
Eu148       O160   2.355       .  S
Eu148       O150   2.350       .  S
Eu148       O455   2.345   1_554  S
Eu148       O468   2.350   1_554  S
O149      Eu1063   2.344   1_545  S
O149       Eu454   2.343       .  S
O150       Eu450   2.345       .  S
C151        C271   1.476       .  S
C151        O448   1.289       .  A
C152        C262   1.471       .  S
C153        C175   1.478       .  S
C154        C202   1.468       .  S
C155        C187   1.493       .  S
C156        C166   1.497       .  S
C157        C226   1.481       .  S
C158        C235   1.497       .  S
H159        O160   0.966   1_565  S
O160       Eu757   2.354   1_545  S
H161        O162   0.965       .  S
O162       Eu454   2.354       .  S
C163        C164   1.412       .  A
C163        C168   1.433       .  A
C164        C165   1.405       .  A
C164        H169   1.079       .  S
C165        C166   1.420       .  A
C165        C172   1.445       .  S
C166        C167   1.397       .  A
C167        C168   1.394       .  A
C167        H170   1.085       .  S
C168        C171   1.446       .  S
C171        N173   1.158       .  T
C172        N174   1.157       .  T
C175        C176   1.406       .  A
C175        C180   1.412       .  A
C176        C177   1.404       .  A
C176        H181   1.085       .  S
C177        C178   1.409       .  A
C177        C184   1.443       .  S
C178        C179   1.401       .  A
C179        C180   1.399       .  A
C179       H1406   1.085       .  S
C180       C1407   1.445   1_455  S
H182       C1403   1.085       .  S
C183       C1404   1.445       .  S
C183        N185   1.157       .  T
C184        N186   1.157       .  T
C187        C188   1.404       .  A
C187        C192   1.424       .  A
C188        C189   1.397       .  A
C188        H193   1.085       .  S
C189        C190   1.417       .  A
C189        C196   1.446       .  S
C190        C191   1.400       .  A
C191        C192   1.402       .  A
C191        H194   1.085       .  S
C192        C195   1.445       .  S
C195        N197   1.157       .  T
C196        N198   1.157       .  T
C199        C200   1.406       .  A
C199        C204   1.412       .  A
C200        C201   1.404       .  A
C200       H1429   1.084       .  S
C201        C202   1.409       .  A
C201       C1432   1.443   1_455  S
C202        C203   1.399       .  A
C203        C204   1.396       .  A
C203        H206   1.085       .  S
C204        C207   1.444       .  S
H205       C1424   1.084       .  S
C207        N209   1.157       .  T
C208       C1425   1.443       .  S
C208        N210   1.157       .  T
C211        C212   1.400       .  A
C211        C216   1.420       .  A
C212        C213   1.401       .  A
C212        H217   1.085       .  S
C213        C214   1.414       .  A
C213        C220   1.436   1_545  S
C214        C215   1.401       .  A
C215        C216   1.400       .  A
C215        H218   1.085       .  S
C216        C219   1.445       .  S
C219        N221   1.157       .  T
C220        N834   1.154       .  T
N222        C832   1.154       .  T
C223        C224   1.406       .  A
C223        C228   1.419       .  A
C224        C225   1.403       .  A
C224        H229   1.084       .  S
C225        C226   1.414       .  A
C225        C232   1.443       .  S
C226        C227   1.400       .  A
C227        C228   1.396       .  A
C227        H230   1.085       .  S
C228        C231   1.446       .  S
C231        N845   1.157       .  T
C232        N234   1.157       .  T
N233        C843   1.157       .  T
C235        C236   1.403       .  A
C235        C240   1.420       .  A
C236        C237   1.401       .  A
C236        H241   1.085       .  S
C237        C238   1.423       .  A
C237        C244   1.445       .  S
C238        C239   1.406       .  A
C239        C240   1.404       .  A
C239        H242   1.083       .  S
C240        C243   1.443       .  S
C243        N245   1.157       .  T
C244        N246   1.158       .  T
C247        C248   1.409       .  A
C247        C252   1.415       .  A
C248        C249   1.402       .  A
C248        H253   1.085       .  S
C249        C250   1.412       .  A
C249        C868   1.445       .  S
C250        C251   1.405       .  A
C251        C252   1.405       .  A
C251        H254   1.083       .  S
C252        C255   1.443       .  S
C255        N257   1.157       .  T
C256        C861   1.445       .  S
C256        N258   1.157       .  T
C259        C260   1.402       .  A
C259        C570   1.415   1_554  A
C260        C261   1.401       .  A
C260        H265   1.085       .  S
C261        C262   1.411       .  A
C261        C268   1.440       .  S
C262        C569   1.397   1_554  A
C263        C264   1.394       .  A
C263        C568   1.397       .  A
C263        H266   1.082       .  S
C264        C565   1.415       .  A
C264        C267   1.446       .  S
C267        N269   1.157       .  T
C268        N270   1.156       .  T
C271        C276   1.415       .  A
C271        C578   1.398       .  A
C272        C273   1.397       .  A
C272        C577   1.399   1_554  A
C272        H277   1.085       .  S
C273        C580   1.420   1_554  A
C273        C280   1.446       .  S
C274        C275   1.402       .  A
C274        C579   1.420       .  A
C275        C276   1.401       .  A
C275        H278   1.085       .  S
C276        C279   1.442       .  S
C279        N281   1.156       .  T
C280        N282   1.157       .  T
C283        C288   1.416       .  A
C283        C590   1.404       .  A
C284        C285   1.402       .  A
C284        C589   1.403       .  A
C284        H289   1.085       .  S
C285        C592   1.413       .  A
C285        C292   1.441       .  S
C286        C287   1.400       .  A
C286        C591   1.413       .  A
C287        C288   1.397       .  A
C287        H290   1.085       .  S
C288        C291   1.445       .  S
C291        N293   1.157       .  T
C292        N294   1.156       .  T
C295        C296   1.401       .  A
C295        C606   1.416       .  A
C295        C307   1.474       .  S
C296        C297   1.401       .  A
C296        H301   1.084       .  S
C297        C298   1.411       .  A
C297        C304   1.442       .  S
C298        C605   1.397       .  A
C299        C300   1.395       .  A
C299        C604   1.398   1_554  A
C299        H302   1.085       .  S
C300        C601   1.416   1_554  A
C300        C303   1.446       .  S
C303        N305   1.157       .  T
C304        N306   1.157       .  T
C307        C312   1.419       .  A
C308        C309   1.404   1_556  A
C308        H313   1.083       .  S
C309        C310   1.397       .  A
C309        C318   1.504   1_554  S
C310        H314   1.060       .  S
C311        C312   1.396       .  A
C311        C336   1.495       .  S
C312        H315   1.083       .  S
C316        C317   1.424       .  A
C316        C321   1.426       .  A
C316        C589   1.483       .  S
C317        C318   1.400   1_554  A
C317        H322   1.083       .  S
C318        C319   1.398       .  A
C319        C320   1.398       .  A
C319        H323   1.058       .  S
C320        C321   1.401   1_556  A
C320        C327   1.507   1_556  S
C321        H324   1.083       .  S
C325        C326   1.429       .  A
C325        C330   1.422       .  A
C325        C580   1.487       .  S
C326        C327   1.405   1_556  A
C326        H331   1.082       .  S
C327        C328   1.396       .  A
C328        C329   1.394       .  A
C328        H332   1.058       .  S
C329        C330   1.397   1_554  A
C334        C335   1.421       .  A
C334        C339   1.420       .  A
C334        C565   1.475       .  S
C335        C336   1.400       .  A
C335        H340   1.083       .  S
C336        C337   1.395       .  A
C337        C338   1.396       .  A
C337        H341   1.061       .  S
C338        C339   1.399       .  A
C339        H342   1.083       .  S
C343        C344   1.434       .  A
C343        C348   1.432       .  A
C343        C553   1.497       .  S
C344        C345   1.406       .  A
C344        H349   1.083       .  S
C345        C346   1.394       .  A
C345        C354   1.516       .  S
C346        C347   1.394       .  A
C346        H350   1.055       .  S
C347        C348   1.402       .  A
C347        C372   1.511       .  S
C348        H351   1.081       .  S
C352        C353   1.436       .  A
C352        C357   1.428       .  A
C352        C544   1.505       .  S
C353        C354   1.406       .  A
C353        H358   1.081       .  S
C354        C355   1.398       .  A
C355        C356   1.394       .  A
C355        H359   1.058       .  S
C356        C357   1.401       .  A
C356        C365   1.504       .  S
C357        H360   1.083       .  S
C361        C362   1.423       .  A
C361        C366   1.426       .  A
C361        C529   1.491       .  S
C362        C363   1.399       .  A
C362        H367   1.083       .  S
C363        C364   1.398       .  A
C363        C374   1.498       .  S
C364        C365   1.399       .  A
C364        H368   1.064       .  S
C365        C366   1.404       .  A
C366        H369   1.082       .  S
C370        C371   1.430       .  A
C370        C375   1.423       .  A
C370        C517   1.490       .  S
C371        C372   1.406       .  A
C371        H376   1.082       .  S
C372        C373   1.399       .  A
C373        C374   1.395       .  A
C373        H377   1.061       .  S
C374        C375   1.398       .  A
C375        H378   1.083       .  S
C379        C380   1.416       .  A
C379        C384   1.410       .  A
C379        C505   1.480       .  S
C380        C381   1.410       .  A
C380        H385   1.083       .  S
C381        C382   1.412       .  A
C381        C390   1.512       .  S
C382        C383   1.403       .  A
C382        H386   1.082       .  S
C383        C384   1.400       .  A
C383        C399   1.486       .  S
C384        H387   1.083       .  S
C388        C389   1.425       .  A
C388        C393   1.409       .  A
C388        C496   1.489       .  S
C389        C390   1.416       .  A
C389        H394   1.082       .  S
C390        C391   1.404       .  A
C391        C392   1.387       .  A
C391        H395   1.076       .  S
C392        C393   1.386       .  A
C392        C408   1.470       .  S
C393        H396   1.084       .  S
C397        C398   1.408       .  A
C397        C402   1.420       .  A
C397        C484   1.476       .  S
C398        C399   1.392       .  A
C398        H403   1.084       .  S
C399        C400   1.397       .  A
C400        C401   1.414       .  A
C400        H404   1.076       .  S
C401        C402   1.413       .  A
C401        C410   1.522       .  S
C402        H405   1.082       .  S
C406        C407   1.408       .  A
C406        C411   1.435       .  A
C406        C469   1.519       .  S
C407        C408   1.390       .  A
C407        H412   1.080       .  S
C408        C409   1.398       .  A
C409        C410   1.407       .  A
C409        H413   1.082   1_455  S
C410        C411   1.421       .  A
C411        H414   1.077       .  S
O415        C426   1.291       .  A
O415      Eu1369   2.462       .  S
O416        C427   1.292       .  A
O416      Eu1674   2.464       .  S
O417        C428   1.293       .  A
O418        C429   1.292       .  A
O418       Eu423   2.462       .  S
O419        C429   1.294       .  A
O419      Eu1677   2.473       .  S
O420        C428   1.292       .  A
O420      Eu1676   2.464       .  S
O421        C427   1.290       .  A
O421       Eu423   2.451   1_554  S
O422        C426   1.289       .  A
O422      Eu1035   2.446       .  S
Eu423      O1034   2.442   1_545  S
Eu423      O1657   2.356       .  S
Eu423      O1343   2.351   1_556  S
Eu423      O1648   2.348       .  S
Eu423      O1349   2.351   1_556  S
O424      Eu1647   2.347   1_456  S
O424       Eu453   2.359       .  S
O424       Eu450   2.355   1_556  S
O425      Eu1341   2.348   1_455  S
O425      Eu1063   2.350   1_545  S
O425       Eu452   2.353       .  S
C426        C604   1.470       .  S
C427        C592   1.477       .  S
C428        C520   1.486       .  S
C429        C556   1.488       .  S
H430        O431   0.966       .  S
O431      Eu1341   2.352   1_455  S
O431       Eu452   2.348       .  S
H432        O433   0.966   1_565  S
O433      Eu1647   2.354   1_456  S
O433       Eu757   2.362   1_546  S
O433       Eu453   2.351       .  S
O434        C457   1.293       .  A
O434       Eu450   2.465   1_556  S
O435        C458   1.291       .  A
O435       Eu451   2.461       .  S
O436        C459   1.293       .  A
O436       Eu452   2.467       .  S
O437        C460   1.294       .  A
O437       Eu453   2.479       .  S
O438        C461   1.297       .  A
O438      Eu1065   2.484       .  S
O439        C462   1.297       .  A
O439      Eu1064   2.480       .  S
O440        C463   1.292       .  A
O440       Eu454   2.456       .  S
O441        C464   1.290       .  A
O442        C463   1.291       .  A
O442       Eu452   2.459       .  S
O443        C464   1.295       .  A
O443       Eu453   2.476       .  S
O444        C459   1.290       .  A
O445        C462   1.285       .  A
O445       Eu451   2.431       .  S
O446        C461   1.285       .  A
O447        C460   1.288       .  A
O447       Eu450   2.444   1_556  S
O448       Eu454   2.445       .  S
O449        C458   1.289       .  A
O449      Eu1066   2.447       .  S
Eu450      O1640   2.465   1_455  S
Eu450       O468   2.360   1_554  S
Eu451      O1333   2.462   1_455  S
Eu451      O1037   2.349       .  S
Eu451       O739   2.357       .  S
Eu451       O761   2.346       .  S
Eu451      O1078   2.355       .  S
Eu452      O1644   2.462   1_455  S
Eu452      O1051   2.473   1_545  S
Eu452       O466   2.348       .  S
Eu452       O456   2.357       .  S
Eu453      O1643   2.472   1_455  S
Eu453      O1050   2.483   1_545  S
Eu453       O455   2.356       .  S
Eu453       O468   2.351       .  S
Eu454      O1061   2.452   1_545  S
Eu454       O466   2.350       .  S
Eu454       O456   2.349       .  S
O455       Eu757   2.350   1_546  S
C457        C577   1.479       .  S
C458        C568   1.471       .  S
C459        C481   1.478       .  S
C460        C508   1.470       .  S
C461        C493   1.494       .  S
C462        C472   1.498       .  S
C463        C532   1.482       .  S
C464        C541   1.498       .  S
H465        O466   0.965   1_565  S
O466      Eu1063   2.356   1_545  S
H467        O468   0.965       .  S
C469        C470   1.412       .  A
C469        C474   1.433       .  A
C470        C471   1.405       .  A
C470        H475   1.079       .  S
C471        C472   1.420       .  A
C471        C478   1.445       .  S
C472        C473   1.397       .  A
C473        C474   1.395       .  A
C473        H476   1.085       .  S
C474        C477   1.446       .  S
C477        N479   1.158       .  T
C478        N480   1.157       .  T
C481        C482   1.406       .  A
C481        C486   1.411       .  A
C482        C483   1.404       .  A
C482        H487   1.085       .  S
C483        C484   1.409       .  A
C483        C490   1.443       .  S
C484        C485   1.402       .  A
C485        C486   1.399       .  A
C485       H1712   1.085       .  S
C486       C1713   1.445   1_455  S
H488       C1709   1.085       .  S
C489       C1710   1.445       .  S
C489        N491   1.157       .  T
C490        N492   1.157       .  T
C493        C494   1.403       .  A
C493        C498   1.425       .  A
C494        C495   1.398       .  A
C494        H499   1.085       .  S
C495        C496   1.418       .  A
C495        C502   1.446       .  S
C496        C497   1.400       .  A
C497        C498   1.402       .  A
C497        H500   1.085       .  S
C498        C501   1.445       .  S
C501        N503   1.157       .  T
C502        N504   1.157       .  T
C505        C506   1.406       .  A
C505        C510   1.412       .  A
C506        C507   1.405       .  A
C506       H1735   1.084       .  S
C507        C508   1.410       .  A
C507       C1738   1.443   1_455  S
C508        C509   1.400       .  A
C509        C510   1.398       .  A
C509        H512   1.085       .  S
C510        C513   1.444       .  S
H511       C1730   1.085       .  S
C513        N515   1.157       .  T
C514       C1731   1.443       .  S
C514        N516   1.157       .  T
C517        C518   1.401       .  A
C517        C522   1.420       .  A
C518        C519   1.402       .  A
C518        H523   1.085       .  S
C519        C520   1.414       .  A
C519        C526   1.436   1_545  S
C520        C521   1.401       .  A
C521        C522   1.401       .  A
C521        H524   1.085       .  S
C522        C525   1.445       .  S
C525        N527   1.157       .  T
C526       N1140   1.154       .  T
N528       C1138   1.156       .  T
C529        C530   1.406       .  A
C529        C534   1.420       .  A
C530        C531   1.404       .  A
C530        H535   1.084       .  S
C531        C532   1.414       .  A
C531        C538   1.443       .  S
C532        C533   1.401       .  A
C533        C534   1.397       .  A
C533        H536   1.085       .  S
C534        C537   1.446       .  S
C537       N1151   1.157       .  T
C538        N540   1.157       .  T
N539       C1149   1.157       .  T
C541        C542   1.403       .  A
C541        C546   1.420       .  A
C542        C543   1.401       .  A
C542        H547   1.085       .  S
C543        C544   1.423       .  A
C543        C550   1.445       .  S
C544        C545   1.406       .  A
C545        C546   1.405       .  A
C545        H548   1.083       .  S
C546        C549   1.443       .  S
C549        N551   1.157       .  T
C550        N552   1.158       .  T
C553        C554   1.409       .  A
C553        C558   1.415       .  A
C554        C555   1.402       .  A
C554        H559   1.085       .  S
C555        C556   1.412       .  A
C555       C1174   1.445       .  S
C556        C557   1.405       .  A
C557        C558   1.406       .  A
C557        H560   1.083       .  S
C558        C561   1.443       .  S
C561        N563   1.157       .  T
C562       C1167   1.445       .  S
C562        N564   1.157       .  T
C565        C566   1.402       .  A
C566        C567   1.401       .  A
C566        H571   1.085       .  S
C567        C568   1.411       .  A
C567        C574   1.440       .  S
C569        C570   1.394       .  A
C569        H572   1.082       .  S
C570        C573   1.446       .  S
C573        N575   1.157       .  T
C574        N576   1.156       .  T
C577        C582   1.415       .  A
C578        C579   1.396       .  A
C578        H583   1.085       .  S
C579        C586   1.446       .  S
C580        C581   1.403       .  A
C581        C582   1.402       .  A
C581        H584   1.084       .  S
C582        C585   1.442       .  S
C585        N587   1.157       .  T
C586        N588   1.157       .  T
C589        C594   1.416   1_554  A
C590        C591   1.402       .  A
C590        H595   1.085       .  S
C591        C598   1.442       .  S
C592        C593   1.400   1_554  A
C593        C594   1.397       .  A
C593        H596   1.085       .  S
C594        C597   1.445       .  S
C597        N599   1.157       .  T
C598        N600   1.156       .  T
C601        C602   1.402       .  A
C602        C603   1.403       .  A
C602        H607   1.084       .  S
C603        C604   1.411       .  A
C603        C610   1.442       .  S
C605        C606   1.394       .  A
C605        H608   1.085       .  S
C606        C609   1.446       .  S
C609        N611   1.157       .  T
C610        N612   1.157       .  T
C613        C920   1.423       .  A
C613        C618   1.420       .  A
C613       C1213   1.476       .  S
C614        C919   1.423       .  A
C614        C615   1.403       .  A
C614        H619   1.083       .  S
C615        C616   1.398       .  A
C615        C624   1.504       .  S
C616        C923   1.397       .  A
C616        H620   1.060       .  S
C617        C922   1.396       .  A
C617        C618   1.397   1_554  A
C617        C642   1.496   1_554  S
C618        H621   1.083       .  S
C622        C623   1.424       .  A
C622        C627   1.426       .  A
C622        C895   1.483       .  S
C623        C624   1.400       .  A
C623        H628   1.083       .  S
C624        C625   1.397       .  A
C625        C626   1.398       .  A
C625        H629   1.058       .  S
C626        C627   1.402       .  A
C626        C633   1.507       .  S
C627        H630   1.083       .  S
C631        C632   1.428       .  A
C631        C636   1.422       .  A
C631        C886   1.486       .  S
C632        C633   1.405       .  A
C632        H637   1.082       .  S
C633        C634   1.396       .  A
C634        C635   1.395       .  A
C634        H638   1.058       .  S
C635        C636   1.397       .  A
C635        C950   1.497       .  S
C636        H945   1.083       .  S
H639        C942   1.083       .  S
C640        C641   1.422       .  A
C640        C645   1.420       .  A
C640        C871   1.476       .  S
C641        C642   1.400   1_554  A
C641        H646   1.083       .  S
C642        C643   1.395       .  A
C643        C644   1.396       .  A
C643        H647   1.061       .  S
C644        C645   1.399   1_556  A
C644        C941   1.495   1_556  S
C645        H648   1.083       .  S
C649        C650   1.434       .  A
C649        C654   1.432       .  A
C649        C859   1.498       .  S
C650        C651   1.406       .  A
C650        H655   1.083       .  S
C651        C652   1.394       .  A
C651        C660   1.516       .  S
C652        C653   1.393       .  A
C652        H656   1.055       .  S
C653        C654   1.403       .  A
C653        C678   1.512       .  S
C654        H657   1.081       .  S
C658        C659   1.435       .  A
C658        C663   1.428       .  A
C658        C850   1.504       .  S
C659        C660   1.406       .  A
C659        H664   1.081       .  S
C660        C661   1.398       .  A
C661        C662   1.394       .  A
C661        H665   1.058       .  S
C662        C663   1.401       .  A
C662        C671   1.504       .  S
C663        H666   1.083       .  S
C667        C668   1.423       .  A
C667        C672   1.426       .  A
C667        C835   1.492       .  S
C668        C669   1.400       .  A
C668        H673   1.083       .  S
C669        C670   1.398       .  A
C669        C680   1.498       .  S
C670        C671   1.399       .  A
C670        H674   1.064       .  S
C671        C672   1.404       .  A
C672        H675   1.082       .  S
C676        C677   1.430       .  A
C676        C681   1.422       .  A
C676        C823   1.490       .  S
C677        C678   1.407       .  A
C677        H682   1.082       .  S
C678        C679   1.400       .  A
C679        C680   1.395       .  A
C679        H683   1.061       .  S
C680        C681   1.398       .  A
C681        H684   1.083       .  S
C685        C686   1.411       .  A
C685        C690   1.413       .  A
C685        C811   1.475       .  S
C686        C687   1.399       .  A
C686        H691   1.084       .  S
C687        C688   1.401       .  A
C687        C696   1.485       .  S
C688        C689   1.405       .  A
C688        H692   1.087       .  S
C689        C690   1.402       .  A
C689        C705   1.487       .  S
C690        H693   1.083       .  S
C694        C695   1.415       .  A
C694        C699   1.427       .  A
C694        C802   1.489       .  S
C695        C696   1.391       .  A
C695        H700   1.084       .  S
C696        C697   1.393       .  A
C697        C698   1.404       .  A
C697        H701   1.064       .  S
C698        C699   1.416       .  A
C698        C714   1.522       .  S
C699        H702   1.081       .  S
C703        C704   1.412       .  A
C703        C708   1.422       .  A
C703        C790   1.475       .  S
C704        C705   1.395       .  A
C704        H709   1.083       .  S
C705        C706   1.393       .  A
C706        C707   1.404       .  A
C706        H710   1.063       .  S
C707        C708   1.413       .  A
C707        C716   1.519       .  S
C708        H711   1.083       .  S
C712        C713   1.427       .  A
C712        C717   1.428       .  A
C712        C775   1.522       .  S
C713        C714   1.407       .  A
C713        H718   1.072       .  S
C714        C715   1.406   1_455  A
C715        C716   1.408   1_655  A
C715        H719   1.078       .  S
C716        C717   1.411       .  A
C717        H720   1.082       .  S
O721        C732   1.291       .  A
O721      Eu2287   2.462       .  S
O722        C733   1.292       .  A
O722      Eu1980   2.465       .  S
O723        C734   1.293       .  A
O723      Eu1035   2.467   1_554  S
O724        C735   1.292       .  A
O724       Eu729   2.465       .  S
O725        C735   1.294       .  A
O725      Eu1983   2.472       .  S
O726        C734   1.292       .  A
O726      Eu1982   2.462       .  S
O727        C733   1.290       .  A
O727       Eu729   2.451       .  S
O728        C732   1.288       .  A
Eu729      O1029   2.463       .  S
Eu729      O1963   2.354       .  S
Eu729      O2261   2.352       .  S
Eu729      O1954   2.347       .  S
Eu729      O2267   2.352       .  S
O730      Eu1953   2.348   1_455  S
O730       Eu759   2.360       .  S
O730       Eu756   2.354       .  S
O731      Eu2259   2.350   1_454  S
O731       Eu758   2.352       .  S
C732        C910   1.468       .  S
C733        C898   1.477       .  S
C734        C826   1.486       .  S
C735        C862   1.489       .  S
H736        O737   0.966       .  S
O737      Eu2259   2.353   1_454  S
O737       Eu758   2.352       .  S
O737      Eu1062   2.358       .  S
H738        O739   0.966       .  S
O739      Eu1953   2.356   1_455  S
O739       Eu759   2.347       .  S
O740        C763   1.292       .  A
O740       Eu756   2.463       .  S
O741        C764   1.290       .  A
O741       Eu757   2.457       .  S
O742        C765   1.293       .  A
O742       Eu758   2.466       .  S
O743        C766   1.292       .  A
O743       Eu759   2.462       .  S
O744        C767   1.292       .  A
O745        C768   1.295       .  A
O746        C769   1.292       .  A
O746       Eu760   2.459       .  S
O747        C770   1.290       .  A
O747      Eu1066   2.454       .  S
O748        C769   1.291       .  A
O748       Eu758   2.458       .  S
O749        C770   1.295       .  A
O749       Eu759   2.475       .  S
O750        C765   1.289       .  A
O750      Eu1062   2.448       .  S
O751        C768   1.290       .  A
O751       Eu757   2.455       .  S
O752        C767   1.288       .  A
O752      Eu1063   2.444       .  S
O753        C766   1.290       .  A
O753       Eu756   2.454       .  S
O754       C1069   1.289       .  A
O754       Eu760   2.448   1_556  S
O755        C764   1.290       .  A
Eu756      O1946   2.464   1_455  S
Eu756      O1056   2.462       .  S
Eu756      O1043   2.358       .  S
Eu756       O774   2.359       .  S
Eu756      O1068   2.347       .  S
Eu757      O2251   2.459   1_454  S
Eu757      O1058   2.438   1_554  S
Eu758      O1950   2.464   1_455  S
Eu758       O772   2.347       .  S
Eu758       O762   2.356       .  S
Eu759      O1949   2.473   1_455  S
Eu759       O761   2.352       .  S
Eu759       O774   2.353       .  S
Eu760      O1053   2.452   1_554  S
Eu760      O1067   2.347   1_554  S
Eu760       O772   2.352       .  S
Eu760      O1080   2.352   1_554  S
Eu760       O762   2.346       .  S
O761      Eu1066   2.347       .  S
O762      Eu1062   2.344       .  S
C763        C883   1.478       .  S
C763       O1060   1.289       .  A
C764        C874   1.470       .  S
C765        C787   1.476       .  S
C766        C814   1.468       .  S
C767        C799   1.491       .  S
C768        C778   1.501       .  S
C769        C838   1.483       .  S
C770        C847   1.497       .  S
H771        O772   0.966       .  S
H773        O774   0.965       .  S
O774      Eu1066   2.349       .  S
C775        C776   1.414       .  A
C775        C780   1.425       .  A
C776        C777   1.404       .  A
C776        H781   1.083       .  S
C777        C778   1.416       .  A
C777        C784   1.445       .  S
C778        C779   1.402       .  A
C779        C780   1.404       .  A
C779        H782   1.085       .  S
C780        C783   1.436       .  S
C783        N785   1.155       .  T
C784        N786   1.157       .  T
C787        C788   1.408       .  A
C787        C792   1.410       .  A
C788        C789   1.405       .  A
C788        H793   1.085       .  S
C789        C790   1.407       .  A
C789        C796   1.442       .  S
C790        C791   1.403       .  A
C791        C792   1.396       .  A
C791       H2018   1.085       .  S
C792       C2019   1.445       .  S
H794       C2015   1.085       .  S
C795       C2016   1.445       .  S
C795        N797   1.157       .  T
C796        N798   1.157       .  T
C799        C800   1.409       .  A
C799        C804   1.418       .  A
C800        C801   1.403       .  A
C800        H805   1.085       .  S
C801        C802   1.409       .  A
C801        C808   1.438       .  S
C802        C803   1.406       .  A
C803        C804   1.395       .  A
C803        H806   1.085       .  S
C804        C807   1.446       .  S
C807        N809   1.158       .  T
C808        N810   1.155       .  T
C811        C812   1.403       .  A
C811        C816   1.410       .  A
C812        C813   1.403       .  A
C812       H2041   1.085       .  S
C813        C814   1.409       .  A
C813       C2044   1.443   1_455  S
C814        C815   1.400       .  A
C815        C816   1.398       .  A
C815        H818   1.085       .  S
C816        C819   1.444       .  S
H817       C2036   1.084       .  S
C819        N821   1.157       .  T
C820       C2037   1.443       .  S
C820        N822   1.157       .  T
C823        C824   1.401       .  A
C823        C828   1.420       .  A
C824        C825   1.402       .  A
C824        H829   1.085       .  S
C825        C826   1.414       .  A
C825        C832   1.436       .  S
C826        C827   1.401       .  A
C827        C828   1.400       .  A
C827        H830   1.085       .  S
C828        C831   1.445       .  S
C831        N833   1.157       .  T
C835        C836   1.406       .  A
C835        C840   1.420       .  A
C836        C837   1.404       .  A
C836        H841   1.084       .  S
C837        C838   1.415       .  A
C837        C844   1.443       .  S
C838        C839   1.401       .  A
C839        C840   1.397       .  A
C839        H842   1.085       .  S
C840        C843   1.446       .  S
C844        N846   1.157       .  T
C847        C848   1.403       .  A
C847        C852   1.420       .  A
C848        C849   1.401       .  A
C848        H853   1.085       .  S
C849        C850   1.423       .  A
C849        C856   1.445       .  S
C850        C851   1.406       .  A
C851        C852   1.404       .  A
C851        H854   1.083       .  S
C852        C855   1.443       .  S
C855        N857   1.157       .  T
C856        N858   1.158       .  T
C859        C860   1.409       .  A
C859        C864   1.415       .  A
C860        C861   1.402       .  A
C860        H865   1.085       .  S
C861        C862   1.412       .  A
C862        C863   1.405       .  A
C863        C864   1.406       .  A
C863        H866   1.083       .  S
C864        C867   1.443       .  S
C867        N869   1.157       .  T
C868        N870   1.157   1_545  T
C871        C872   1.403       .  A
C871       C1182   1.415   1_554  A
C872        C873   1.402       .  A
C872        H877   1.085       .  S
C873        C874   1.411       .  A
C873        C880   1.441       .  S
C874       C1181   1.397   1_554  A
C875       C1180   1.397       .  A
C875        C876   1.395       .  A
C875        H878   1.082       .  S
C876       C1177   1.415       .  A
C876        C879   1.445       .  S
C879        N881   1.157       .  T
C880        N882   1.156       .  T
C883       C1190   1.399       .  A
C883        C888   1.415       .  A
C884       C1189   1.399   1_554  A
C884        C885   1.396       .  A
C884        H889   1.085       .  S
C885       C1192   1.420   1_554  A
C885        C892   1.446       .  S
C886       C1191   1.420       .  A
C886        C887   1.403       .  A
C887        C888   1.402       .  A
C887        H890   1.084       .  S
C888        C891   1.443       .  S
C891        N893   1.157       .  T
C892        N894   1.157       .  T
C895       C1202   1.403       .  A
C895        C900   1.416       .  A
C896       C1201   1.403       .  A
C896        C897   1.402       .  A
C896        H901   1.085       .  S
C897       C1204   1.413       .  A
C897        C904   1.442       .  S
C898       C1203   1.413       .  A
C898        C899   1.401       .  A
C899        C900   1.398       .  A
C899        H902   1.085       .  S
C900        C903   1.445       .  S
C903        N905   1.157       .  T
C904        N906   1.156       .  T
C907        C908   1.401       .  A
C907       C1218   1.416       .  A
C907        C919   1.475       .  S
C908        C909   1.402       .  A
C908        H913   1.084       .  S
C909        C910   1.411       .  A
C909        C916   1.442       .  S
C910       C1217   1.397       .  A
C911       C1216   1.397   1_554  A
C911        C912   1.394       .  A
C911        H914   1.085       .  S
C912       C1213   1.416   1_554  A
C912        C915   1.446       .  S
C915        N917   1.157       .  T
C916        N918   1.157       .  T
C919        C924   1.420       .  A
C920        C921   1.403   1_556  A
C920        H925   1.083       .  S
C921        C922   1.397       .  A
C921        C930   1.503   1_554  S
C922        H926   1.060       .  S
C923        C924   1.397       .  A
C923        C948   1.496       .  S
C924        H927   1.083       .  S
C928        C929   1.423       .  A
C928        C933   1.425       .  A
C928       C1201   1.482       .  S
C929        C930   1.400   1_554  A
C929        H934   1.083       .  S
C930        C931   1.398       .  A
C931        C932   1.398       .  A
C931        H935   1.059       .  S
C932        C933   1.401   1_556  A
C932        C939   1.506   1_556  S
C933        H936   1.083       .  S
C937        C938   1.428       .  A
C937        C942   1.422       .  A
C937       C1192   1.485       .  S
C938        C939   1.405   1_556  A
C938        H943   1.082       .  S
C939        C940   1.395       .  A
C940        C941   1.394       .  A
C940        H944   1.059       .  S
C941        C942   1.396   1_554  A
C946        C947   1.422       .  A
C946        C951   1.421       .  A
C946       C1177   1.476       .  S
C947        C948   1.400       .  A
C947        H952   1.083       .  S
C948        C949   1.395       .  A
C949        C950   1.396       .  A
C949        H953   1.061       .  S
C950        C951   1.400       .  A
C951        H954   1.083       .  S
C955        C956   1.433       .  A
C955        C960   1.431       .  A
C955       C1165   1.496       .  S
C956        C957   1.406       .  A
C956        H961   1.083       .  S
C957        C958   1.394       .  A
C957        C966   1.515       .  S
C958        C959   1.393       .  A
C958        H962   1.056       .  S
C959        C960   1.402       .  A
C959        C984   1.509       .  S
C960        H963   1.081       .  S
C964        C965   1.435       .  A
C964        C969   1.427       .  A
C964       C1156   1.502       .  S
C965        C966   1.406       .  A
C965        H970   1.081       .  S
C966        C967   1.398       .  A
C967        C968   1.394       .  A
C967        H971   1.059       .  S
C968        C969   1.400       .  A
C968        C977   1.503       .  S
C969        H972   1.083       .  S
C973        C974   1.423       .  A
C973        C978   1.425       .  A
C973       C1141   1.491       .  S
C974        C975   1.400       .  A
C974        H979   1.083       .  S
C975        C976   1.398       .  A
C975        C986   1.498       .  S
C976        C977   1.399       .  A
C976        H980   1.065       .  S
C977        C978   1.403       .  A
C978        H981   1.082       .  S
C982        C983   1.429       .  A
C982        C987   1.422       .  A
C982       C1129   1.489       .  S
C983        C984   1.406       .  A
C983        H988   1.082       .  S
C984        C985   1.399       .  A
C985        C986   1.395       .  A
C985        H989   1.061       .  S
C986        C987   1.398       .  A
C987        H990   1.083       .  S
C991        C992   1.416       .  A
C991        C996   1.410       .  A
C991       C1117   1.480       .  S
C992        C993   1.410       .  A
C992        H997   1.082       .  S
C993        C994   1.413       .  A
C993       C1002   1.513       .  S
C994        C995   1.403       .  A
C994        H998   1.082       .  S
C995        C996   1.400       .  A
C995       C1011   1.487       .  S
C996        H999   1.083       .  S
C1000      C1001   1.426       .  A
C1000      C1005   1.411       .  A
C1000      C1108   1.492       .  S
C1001      C1002   1.416       .  A
C1001      H1006   1.082       .  S
C1002      C1003   1.404       .  A
C1003      C1004   1.387       .  A
C1003      H1007   1.076       .  S
C1004      C1005   1.389       .  A
C1004      C1020   1.473       .  S
C1005      H1008   1.083       .  S
C1009      C1010   1.409       .  A
C1009      C1014   1.420       .  A
C1009      C1096   1.479       .  S
C1010      C1011   1.393       .  A
C1010      H1015   1.084       .  S
C1011      C1012   1.397       .  A
C1012      C1013   1.413       .  A
C1012      H1016   1.076       .  S
C1013      C1014   1.414       .  A
C1013      C1022   1.522       .  S
C1014      H1017   1.082       .  S
C1018      C1019   1.410       .  A
C1018      C1023   1.434       .  A
C1018      C1081   1.521       .  S
C1019      C1020   1.392       .  A
C1019      H1024   1.080       .  S
C1020      C1021   1.399       .  A
C1021      C1022   1.408       .  A
C1021      H1025   1.082   1_455  S
C1022      C1023   1.420       .  A
C1023      H1026   1.077       .  S
O1027      C1038   1.291       .  A
O1027     Eu1981   2.462       .  S
O1028      C1039   1.292       .  A
O1028     Eu2286   2.463       .  S
O1029      C1040   1.293       .  A
O1030      C1041   1.292       .  A
O1030     Eu1035   2.460       .  S
O1031      C1041   1.294       .  A
O1031     Eu2289   2.473       .  S
O1032      C1040   1.291       .  A
O1032     Eu2288   2.458       .  S
O1033      C1039   1.290       .  A
O1033     Eu1035   2.450   1_554  S
O1034      C1038   1.288       .  A
Eu1035     O2269   2.356       .  S
Eu1035     O1955   2.348   1_556  S
Eu1035     O2260   2.351       .  S
Eu1035     O1961   2.352   1_556  S
O1036     Eu2259   2.349   1_455  S
O1036     Eu1065   2.360       .  S
O1036     Eu1062   2.352   1_556  S
O1037     Eu1953   2.351   1_455  S
O1037     Eu1064   2.352       .  S
C1038      C1216   1.467       .  S
C1039      C1204   1.476       .  S
C1040      C1132   1.483       .  S
C1041      C1168   1.487       .  S
H1042      O1043   0.966       .  S
O1043     Eu1953   2.351   1_455  S
O1043     Eu1064   2.352       .  S
H1044      O1045   0.966       .  S
O1045     Eu2259   2.356   1_455  S
O1045     Eu1065   2.351       .  S
O1046      C1069   1.292       .  A
O1046     Eu1062   2.463   1_556  S
O1047      C1070   1.290       .  A
O1047     Eu1063   2.461       .  S
O1048      C1071   1.293       .  A
O1048     Eu1064   2.465       .  S
O1049      C1072   1.294       .  A
O1049     Eu1065   2.478       .  S
O1050      C1073   1.297       .  A
O1051      C1074   1.296       .  A
O1052      C1075   1.292       .  A
O1052     Eu1066   2.456       .  S
O1053      C1076   1.289       .  A
O1054      C1075   1.291       .  A
O1054     Eu1064   2.460       .  S
O1055      C1076   1.295       .  A
O1055     Eu1065   2.475       .  S
O1056      C1071   1.291       .  A
O1057      C1074   1.288       .  A
O1057     Eu1063   2.444       .  S
O1058      C1073   1.287       .  A
O1059      C1072   1.288       .  A
O1059     Eu1062   2.443   1_556  S
O1060     Eu1066   2.450       .  S
O1061      C1070   1.290       .  A
Eu1062     O2252   2.466   1_455  S
Eu1062     O1080   2.358   1_554  S
Eu1063     O1945   2.462   1_455  S
Eu1064     O2256   2.462   1_455  S
Eu1064     O1078   2.347       .  S
Eu1064     O1068   2.359       .  S
Eu1065     O2255   2.471   1_455  S
Eu1065     O1067   2.356       .  S
Eu1065     O1080   2.351       .  S
Eu1066     O1078   2.352       .  S
Eu1066     O1068   2.349       .  S
C1069      C1189   1.477       .  S
C1070      C1180   1.472       .  S
C1071      C1093   1.480       .  S
C1072      C1120   1.470       .  S
C1073      C1105   1.497       .  S
C1074      C1084   1.499       .  S
C1075      C1144   1.482       .  S
C1076      C1153   1.496       .  S
H1077      O1078   0.966       .  S
H1079      O1080   0.965       .  S
C1081      C1082   1.413       .  A
C1081      C1086   1.432       .  A
C1082      C1083   1.407       .  A
C1082      H1087   1.079       .  S
C1083      C1084   1.419       .  A
C1083      C1090   1.445       .  S
C1084      C1085   1.398       .  A
C1085      C1086   1.395       .  A
C1085      H1088   1.085       .  S
C1086      C1089   1.446       .  S
C1089      N1091   1.158       .  T
C1090      N1092   1.157       .  T
C1093      C1094   1.406       .  A
C1093      C1098   1.412       .  A
C1094      C1095   1.405       .  A
C1094      H1099   1.085       .  S
C1095      C1096   1.409       .  A
C1095      C1102   1.443       .  S
C1096      C1097   1.402       .  A
C1097      C1098   1.399       .  A
C1097      H2324   1.085       .  S
C1098      C2325   1.445   1_455  S
H1100      C2321   1.085       .  S
C1101      C2322   1.445       .  S
C1101      N1103   1.157       .  T
C1102      N1104   1.157       .  T
C1105      C1106   1.404       .  A
C1105      C1110   1.424       .  A
C1106      C1107   1.399       .  A
C1106      H1111   1.085       .  S
C1107      C1108   1.418       .  A
C1107      C1114   1.446       .  S
C1108      C1109   1.402       .  A
C1109      C1110   1.404       .  A
C1109      H1112   1.085       .  S
C1110      C1113   1.445       .  S
C1113      N1115   1.158       .  T
C1114      N1116   1.157       .  T
C1117      C1118   1.406       .  A
C1117      C1122   1.412       .  A
C1118      C1119   1.405       .  A
C1118      H2347   1.084       .  S
C1119      C1120   1.409       .  A
C1119      C2350   1.443   1_455  S
C1120      C1121   1.400       .  A
C1121      C1122   1.397       .  A
C1121      H1124   1.085       .  S
C1122      C1125   1.444       .  S
H1123      C2342   1.084       .  S
C1125      N1127   1.157       .  T
C1126      C2343   1.443       .  S
C1126      N1128   1.157       .  T
C1129      C1130   1.402       .  A
C1129      C1134   1.419       .  A
C1130      C1131   1.402       .  A
C1130      H1135   1.084       .  S
C1131      C1132   1.414       .  A
C1131      C1138   1.440       .  S
C1132      C1133   1.401       .  A
C1133      C1134   1.399       .  A
C1133      H1136   1.085       .  S
C1134      C1137   1.445       .  S
C1137      N1139   1.157       .  T
C1141      C1142   1.406       .  A
C1141      C1146   1.419       .  A
C1142      C1143   1.404       .  A
C1142      H1147   1.084       .  S
C1143      C1144   1.414       .  A
C1143      C1150   1.444       .  S
C1144      C1145   1.401       .  A
C1145      C1146   1.396       .  A
C1145      H1148   1.085       .  S
C1146      C1149   1.446       .  S
C1150      N1152   1.157       .  T
C1153      C1154   1.403       .  A
C1153      C1158   1.420       .  A
C1154      C1155   1.400       .  A
C1154      H1159   1.085       .  S
C1155      C1156   1.423       .  A
C1155      C1162   1.445       .  S
C1156      C1157   1.406       .  A
C1157      C1158   1.404       .  A
C1157      H1160   1.083       .  S
C1158      C1161   1.443       .  S
C1161      N1163   1.157       .  T
C1162      N1164   1.158       .  T
C1165      C1166   1.408       .  A
C1165      C1170   1.415       .  A
C1166      C1167   1.402       .  A
C1166      H1171   1.085       .  S
C1167      C1168   1.412       .  A
C1168      C1169   1.405       .  A
C1169      C1170   1.405       .  A
C1169      H1172   1.083       .  S
C1170      C1173   1.443       .  S
C1173      N1175   1.157       .  T
C1174      N1176   1.157   1_545  T
C1177      C1178   1.401       .  A
C1178      C1179   1.401       .  A
C1178      H1183   1.085       .  S
C1179      C1180   1.411       .  A
C1179      C1186   1.439       .  S
C1181      C1182   1.393       .  A
C1181      H1184   1.082       .  S
C1182      C1185   1.446       .  S
C1185      N1187   1.157       .  T
C1186      N1188   1.155       .  T
C1189      C1194   1.415       .  A
C1190      C1191   1.396       .  A
C1190      H1195   1.085       .  S
C1191      C1198   1.446       .  S
C1192      C1193   1.402       .  A
C1193      C1194   1.402       .  A
C1193      H1196   1.084       .  S
C1194      C1197   1.443       .  S
C1197      N1199   1.157       .  T
C1198      N1200   1.157       .  T
C1201      C1206   1.416   1_554  A
C1202      C1203   1.402       .  A
C1202      H1207   1.085       .  S
C1203      C1210   1.441       .  S
C1204      C1205   1.400   1_554  A
C1205      C1206   1.397       .  A
C1205      H1208   1.085       .  S
C1206      C1209   1.445       .  S
C1209      N1211   1.157       .  T
C1210      N1212   1.156       .  T
C1213      C1214   1.401       .  A
C1214      C1215   1.402       .  A
C1214      H1219   1.084       .  S
C1215      C1216   1.411       .  A
C1215      C1222   1.442       .  S
C1217      C1218   1.394       .  A
C1217      H1220   1.085       .  S
C1218      C1221   1.446       .  S
C1221      N1223   1.157       .  T
C1222      N1224   1.157       .  T
C1225      C1532   1.423       .  A
C1225      C1230   1.420       .  A
C1225      C1825   1.475       .  S
C1226      C1531   1.423       .  A
C1226      C1227   1.403       .  A
C1226      H1231   1.083       .  S
C1227      C1228   1.397       .  A
C1227      C1236   1.503       .  S
C1228      C1535   1.396       .  A
C1228      H1232   1.060       .  S
C1229      C1534   1.397       .  A
C1229      C1230   1.397   1_554  A
C1229      C1254   1.496   1_554  S
C1230      H1233   1.083       .  S
C1234      C1235   1.423       .  A
C1234      C1239   1.425       .  A
C1234      C1507   1.482       .  S
C1235      C1236   1.400       .  A
C1235      H1240   1.083       .  S
C1236      C1237   1.398       .  A
C1237      C1238   1.398       .  A
C1237      H1241   1.059       .  S
C1238      C1239   1.401       .  A
C1238      C1245   1.506       .  S
C1239      H1242   1.083       .  S
C1243      C1244   1.428       .  A
C1243      C1248   1.422       .  A
C1243      C1498   1.485       .  S
C1244      C1245   1.405       .  A
C1244      H1249   1.082       .  S
C1245      C1246   1.395       .  A
C1246      C1247   1.394       .  A
C1246      H1250   1.059       .  S
C1247      C1248   1.396       .  A
C1247      C1562   1.495       .  S
C1248      H1557   1.083       .  S
H1251      C1554   1.083       .  S
C1252      C1253   1.422       .  A
C1252      C1257   1.421       .  A
C1252      C1483   1.476       .  S
C1253      C1254   1.400   1_554  A
C1253      H1258   1.083       .  S
C1254      C1255   1.395       .  A
C1255      C1256   1.396       .  A
C1255      H1259   1.061       .  S
C1256      C1257   1.400   1_556  A
C1256      C1553   1.497   1_556  S
C1257      H1260   1.083       .  S
C1261      C1262   1.433       .  A
C1261      C1266   1.431       .  A
C1261      C1471   1.496       .  S
C1262      C1263   1.406       .  A
C1262      H1267   1.083       .  S
C1263      C1264   1.394       .  A
C1263      C1272   1.515       .  S
C1264      C1265   1.393       .  A
C1264      H1268   1.056       .  S
C1265      C1266   1.402       .  A
C1265      C1290   1.509       .  S
C1266      H1269   1.081       .  S
C1270      C1271   1.435       .  A
C1270      C1275   1.427       .  A
C1270      C1462   1.502       .  S
C1271      C1272   1.406       .  A
C1271      H1276   1.081       .  S
C1272      C1273   1.398       .  A
C1273      C1274   1.394       .  A
C1273      H1277   1.059       .  S
C1274      C1275   1.400       .  A
C1274      C1283   1.503       .  S
C1275      H1278   1.083       .  S
C1279      C1280   1.423       .  A
C1279      C1284   1.425       .  A
C1279      C1447   1.491       .  S
C1280      C1281   1.400       .  A
C1280      H1285   1.083       .  S
C1281      C1282   1.398       .  A
C1281      C1292   1.498       .  S
C1282      C1283   1.399       .  A
C1282      H1286   1.065       .  S
C1283      C1284   1.403       .  A
C1284      H1287   1.082       .  S
C1288      C1289   1.429       .  A
C1288      C1293   1.422       .  A
C1288      C1435   1.489       .  S
C1289      C1290   1.406       .  A
C1289      H1294   1.082       .  S
C1290      C1291   1.399       .  A
C1291      C1292   1.395       .  A
C1291      H1295   1.061       .  S
C1292      C1293   1.398       .  A
C1293      H1296   1.083       .  S
C1297      C1298   1.416       .  A
C1297      C1302   1.410       .  A
C1297      C1423   1.480       .  S
C1298      C1299   1.410       .  A
C1298      H1303   1.082       .  S
C1299      C1300   1.413       .  A
C1299      C1308   1.513       .  S
C1300      C1301   1.403       .  A
C1300      H1304   1.082       .  S
C1301      C1302   1.400       .  A
C1301      C1317   1.487       .  S
C1302      H1305   1.083       .  S
C1306      C1307   1.426       .  A
C1306      C1311   1.411       .  A
C1306      C1414   1.492       .  S
C1307      C1308   1.416       .  A
C1307      H1312   1.082       .  S
C1308      C1309   1.404       .  A
C1309      C1310   1.387       .  A
C1309      H1313   1.076       .  S
C1310      C1311   1.389       .  A
C1310      C1326   1.473       .  S
C1311      H1314   1.083       .  S
C1315      C1316   1.409       .  A
C1315      C1320   1.420       .  A
C1315      C1402   1.479       .  S
C1316      C1317   1.393       .  A
C1316      H1321   1.084       .  S
C1317      C1318   1.397       .  A
C1318      C1319   1.413       .  A
C1318      H1322   1.076       .  S
C1319      C1320   1.414       .  A
C1319      C1328   1.522       .  S
C1320      H1323   1.082       .  S
C1324      C1325   1.410       .  A
C1324      C1329   1.434       .  A
C1324      C1387   1.521       .  S
C1325      C1326   1.392       .  A
C1325      H1330   1.080       .  S
C1326      C1327   1.399       .  A
C1327      C1328   1.408       .  A
C1327      H1331   1.082       .  S
C1328      C1329   1.420       .  A
C1329      H1332   1.077       .  S
O1333      C1344   1.291       .  A
O1334      C1345   1.292       .  A
O1335      C1346   1.293       .  A
O1335     Eu1647   2.463       .  S
O1336      C1347   1.292       .  A
O1336     Eu1341   2.460       .  S
O1337      C1347   1.294       .  A
O1338      C1346   1.291       .  A
O1339      C1345   1.290       .  A
O1339     Eu1341   2.450       .  S
O1340      C1344   1.288       .  A
O1340     Eu1953   2.442       .  S
Eu1341     O1641   2.467       .  S
Eu1341     O1952   2.446   1_545  S
O1342     Eu1371   2.360       .  S
O1342     Eu1368   2.352       .  S
O1343     Eu1981   2.349   1_544  S
O1343     Eu1370   2.352       .  S
C1344      C1522   1.467       .  S
C1345      C1510   1.476       .  S
C1346      C1438   1.483       .  S
C1347      C1474   1.487       .  S
H1348      O1349   0.966       .  S
O1349     Eu1370   2.352       .  S
O1349     Eu1674   2.358       .  S
H1350      O1351   0.966   1_565  S
O1351     Eu2287   2.357   1_545  S
O1351     Eu1371   2.351       .  S
O1352      C1375   1.292       .  A
O1352     Eu1368   2.463       .  S
O1353      C1376   1.290       .  A
O1353     Eu1369   2.461   1_554  S
O1354      C1377   1.293       .  A
O1354     Eu1370   2.465       .  S
O1355      C1378   1.294       .  A
O1355     Eu1371   2.478       .  S
O1356      C1379   1.297       .  A
O1356     Eu1983   2.483       .  S
O1357      C1380   1.296       .  A
O1357     Eu1982   2.473       .  S
O1358      C1381   1.292       .  A
O1358     Eu1372   2.456       .  S
O1359      C1382   1.289       .  A
O1359     Eu1678   2.452       .  S
O1360      C1381   1.291       .  A
O1360     Eu1370   2.459       .  S
O1361      C1382   1.295       .  A
O1361     Eu1371   2.475       .  S
O1362      C1377   1.291       .  A
O1362     Eu1674   2.462       .  S
O1363      C1380   1.288       .  A
O1363     Eu1369   2.444   1_554  S
O1364      C1379   1.287       .  A
O1364     Eu1675   2.438       .  S
O1365      C1378   1.288       .  A
O1365     Eu1368   2.443       .  S
O1366      C1681   1.289       .  A
O1366     Eu1372   2.450   1_556  S
O1367      C1376   1.290       .  A
O1367     Eu1984   2.452       .  S
Eu1368     O1668   2.448       .  S
Eu1368     O1655   2.358       .  S
Eu1368     O1386   2.358       .  S
Eu1368     O1680   2.344       .  S
Eu1369     O1670   2.444       .  S
Eu1369     O1955   2.350   1_556  S
Eu1369     O2269   2.359       .  S
Eu1369     O2291   2.344       .  S
Eu1369     O1996   2.356   1_556  S
Eu1370     O1969   2.480   1_545  S
Eu1370     O1384   2.347       .  S
Eu1370     O1374   2.359       .  S
Eu1371     O1968   2.484   1_545  S
Eu1371     O1373   2.356       .  S
Eu1371     O1386   2.351       .  S
Eu1372     O1665   2.454   1_554  S
Eu1372     O1979   2.447   1_545  S
Eu1372     O1679   2.347   1_554  S
Eu1372     O1384   2.352       .  S
Eu1372     O1692   2.349   1_554  S
Eu1372     O1374   2.349       .  S
O1373     Eu2287   2.346   1_545  S
O1373     Eu1678   2.347       .  S
O1374     Eu1674   2.347       .  S
C1375      C1495   1.477       .  S
C1375      O1672   1.289       .  A
C1376      C1486   1.472       .  S
C1377      C1399   1.480       .  S
C1378      C1426   1.470       .  S
C1379      C1411   1.497       .  S
C1380      C1390   1.499       .  S
C1381      C1450   1.482       .  S
C1382      C1459   1.496       .  S
H1383      O1384   0.966   1_565  S
O1384     Eu1981   2.355   1_544  S
H1385      O1386   0.965       .  S
O1386     Eu1678   2.352       .  S
C1387      C1388   1.413       .  A
C1387      C1392   1.432       .  A
C1388      C1389   1.407       .  A
C1388      H1393   1.079       .  S
C1389      C1390   1.419       .  A
C1389      C1396   1.445       .  S
C1390      C1391   1.398       .  A
C1391      C1392   1.395       .  A
C1391      H1394   1.085       .  S
C1392      C1395   1.446       .  S
C1395      N1397   1.158       .  T
C1396      N1398   1.157       .  T
C1399      C1400   1.406       .  A
C1399      C1404   1.412       .  A
C1400      C1401   1.405       .  A
C1400      H1405   1.085       .  S
C1401      C1402   1.409       .  A
C1401      C1408   1.443       .  S
C1402      C1403   1.402       .  A
C1403      C1404   1.399       .  A
C1407      N1409   1.157       .  T
C1408      N1410   1.157       .  T
C1411      C1412   1.404       .  A
C1411      C1416   1.424       .  A
C1412      C1413   1.399       .  A
C1412      H1417   1.085       .  S
C1413      C1414   1.418       .  A
C1413      C1420   1.446       .  S
C1414      C1415   1.402       .  A
C1415      C1416   1.404       .  A
C1415      H1418   1.085       .  S
C1416      C1419   1.445       .  S
C1419      N1421   1.158       .  T
C1420      N1422   1.157       .  T
C1423      C1424   1.406       .  A
C1423      C1428   1.412       .  A
C1424      C1425   1.405       .  A
C1425      C1426   1.409       .  A
C1426      C1427   1.400       .  A
C1427      C1428   1.397       .  A
C1427      H1430   1.085       .  S
C1428      C1431   1.444       .  S
C1431      N1433   1.157       .  T
C1432      N1434   1.157       .  T
C1435      C1436   1.402       .  A
C1435      C1440   1.419       .  A
C1436      C1437   1.402       .  A
C1436      H1441   1.084       .  S
C1437      C1438   1.414       .  A
C1437      C1444   1.440   1_545  S
C1438      C1439   1.401       .  A
C1439      C1440   1.399       .  A
C1439      H1442   1.085       .  S
C1440      C1443   1.445       .  S
C1443      N1445   1.157       .  T
C1444      N2058   1.156       .  T
N1446      C2056   1.154       .  T
C1447      C1448   1.406       .  A
C1447      C1452   1.419       .  A
C1448      C1449   1.404       .  A
C1448      H1453   1.084       .  S
C1449      C1450   1.414       .  A
C1449      C1456   1.444       .  S
C1450      C1451   1.401       .  A
C1451      C1452   1.396       .  A
C1451      H1454   1.085       .  S
C1452      C1455   1.446       .  S
C1455      N2069   1.157       .  T
C1456      N1458   1.157       .  T
N1457      C2067   1.157       .  T
C1459      C1460   1.403       .  A
C1459      C1464   1.420       .  A
C1460      C1461   1.400       .  A
C1460      H1465   1.085       .  S
C1461      C1462   1.423       .  A
C1461      C1468   1.445       .  S
C1462      C1463   1.406       .  A
C1463      C1464   1.404       .  A
C1463      H1466   1.083       .  S
C1464      C1467   1.443       .  S
C1467      N1469   1.157       .  T
C1468      N1470   1.158       .  T
C1471      C1472   1.408       .  A
C1471      C1476   1.415       .  A
C1472      C1473   1.402       .  A
C1472      H1477   1.085       .  S
C1473      C1474   1.412       .  A
C1473      C2092   1.445       .  S
C1474      C1475   1.405       .  A
C1475      C1476   1.405       .  A
C1475      H1478   1.083       .  S
C1476      C1479   1.443       .  S
C1479      N1481   1.157       .  T
C1480      C2085   1.445       .  S
C1480      N1482   1.157       .  T
C1483      C1484   1.401       .  A
C1483      C1794   1.415   1_554  A
C1484      C1485   1.401       .  A
C1484      H1489   1.085       .  S
C1485      C1486   1.411       .  A
C1485      C1492   1.439       .  S
C1486      C1793   1.397   1_554  A
C1487      C1792   1.397       .  A
C1487      C1488   1.393       .  A
C1487      H1490   1.082       .  S
C1488      C1789   1.415       .  A
C1488      C1491   1.446       .  S
C1491      N1493   1.157       .  T
C1492      N1494   1.155       .  T
C1495      C1802   1.399       .  A
C1495      C1500   1.415       .  A
C1496      C1801   1.399   1_554  A
C1496      C1497   1.396       .  A
C1496      H1501   1.085       .  S
C1497      C1804   1.420   1_554  A
C1497      C1504   1.446       .  S
C1498      C1803   1.420       .  A
C1498      C1499   1.402       .  A
C1499      C1500   1.402       .  A
C1499      H1502   1.084       .  S
C1500      C1503   1.443       .  S
C1503      N1505   1.157       .  T
C1504      N1506   1.157       .  T
C1507      C1814   1.403       .  A
C1507      C1512   1.416       .  A
C1508      C1813   1.403       .  A
C1508      C1509   1.402       .  A
C1508      H1513   1.085       .  S
C1509      C1816   1.413       .  A
C1509      C1516   1.441       .  S
C1510      C1815   1.413       .  A
C1510      C1511   1.400       .  A
C1511      C1512   1.397       .  A
C1511      H1514   1.085       .  S
C1512      C1515   1.445       .  S
C1515      N1517   1.157       .  T
C1516      N1518   1.156       .  T
C1519      C1520   1.401       .  A
C1519      C1830   1.416       .  A
C1519      C1531   1.476       .  S
C1520      C1521   1.402       .  A
C1520      H1525   1.084       .  S
C1521      C1522   1.411       .  A
C1521      C1528   1.442       .  S
C1522      C1829   1.397       .  A
C1523      C1828   1.397   1_554  A
C1523      C1524   1.394       .  A
C1523      H1526   1.085       .  S
C1524      C1825   1.416   1_554  A
C1524      C1527   1.446       .  S
C1527      N1529   1.157       .  T
C1528      N1530   1.157       .  T
C1531      C1536   1.420       .  A
C1532      C1533   1.403   1_556  A
C1532      H1537   1.083       .  S
C1533      C1534   1.398       .  A
C1533      C1542   1.504   1_554  S
C1534      H1538   1.060       .  S
C1535      C1536   1.397       .  A
C1535      C1560   1.496       .  S
C1536      H1539   1.083       .  S
C1540      C1541   1.424       .  A
C1540      C1545   1.426       .  A
C1540      C1813   1.483       .  S
C1541      C1542   1.400   1_554  A
C1541      H1546   1.083       .  S
C1542      C1543   1.397       .  A
C1543      C1544   1.398       .  A
C1543      H1547   1.058       .  S
C1544      C1545   1.402   1_556  A
C1544      C1551   1.507   1_556  S
C1545      H1548   1.083       .  S
C1549      C1550   1.428       .  A
C1549      C1554   1.422       .  A
C1549      C1804   1.486       .  S
C1550      C1551   1.405   1_556  A
C1550      H1555   1.082       .  S
C1551      C1552   1.396       .  A
C1552      C1553   1.395       .  A
C1552      H1556   1.058       .  S
C1553      C1554   1.397   1_554  A
C1558      C1559   1.422       .  A
C1558      C1563   1.420       .  A
C1558      C1789   1.476       .  S
C1559      C1560   1.400       .  A
C1559      H1564   1.083       .  S
C1560      C1561   1.395       .  A
C1561      C1562   1.396       .  A
C1561      H1565   1.061       .  S
C1562      C1563   1.399       .  A
C1563      H1566   1.083       .  S
C1567      C1568   1.434       .  A
C1567      C1572   1.432       .  A
C1567      C1777   1.498       .  S
C1568      C1569   1.406       .  A
C1568      H1573   1.083       .  S
C1569      C1570   1.394       .  A
C1569      C1578   1.516       .  S
C1570      C1571   1.393       .  A
C1570      H1574   1.055       .  S
C1571      C1572   1.403       .  A
C1571      C1596   1.512       .  S
C1572      H1575   1.081       .  S
C1576      C1577   1.435       .  A
C1576      C1581   1.428       .  A
C1576      C1768   1.504       .  S
C1577      C1578   1.406       .  A
C1577      H1582   1.081       .  S
C1578      C1579   1.398       .  A
C1579      C1580   1.394       .  A
C1579      H1583   1.058       .  S
C1580      C1581   1.401       .  A
C1580      C1589   1.504       .  S
C1581      H1584   1.083       .  S
C1585      C1586   1.423       .  A
C1585      C1590   1.426       .  A
C1585      C1753   1.492       .  S
C1586      C1587   1.400       .  A
C1586      H1591   1.083       .  S
C1587      C1588   1.398       .  A
C1587      C1598   1.498       .  S
C1588      C1589   1.399       .  A
C1588      H1592   1.064       .  S
C1589      C1590   1.404       .  A
C1590      H1593   1.082       .  S
C1594      C1595   1.430       .  A
C1594      C1599   1.422       .  A
C1594      C1741   1.490       .  S
C1595      C1596   1.407       .  A
C1595      H1600   1.082       .  S
C1596      C1597   1.400       .  A
C1597      C1598   1.395       .  A
C1597      H1601   1.061       .  S
C1598      C1599   1.398       .  A
C1599      H1602   1.083       .  S
C1603      C1604   1.411       .  A
C1603      C1608   1.413       .  A
C1603      C1729   1.475       .  S
C1604      C1605   1.399       .  A
C1604      H1609   1.084       .  S
C1605      C1606   1.401       .  A
C1605      C1614   1.485       .  S
C1606      C1607   1.405       .  A
C1606      H1610   1.087       .  S
C1607      C1608   1.402       .  A
C1607      C1623   1.487       .  S
C1608      H1611   1.083       .  S
C1612      C1613   1.415       .  A
C1612      C1617   1.427       .  A
C1612      C1720   1.489       .  S
C1613      C1614   1.391       .  A
C1613      H1618   1.084       .  S
C1614      C1615   1.393       .  A
C1615      C1616   1.404       .  A
C1615      H1619   1.064       .  S
C1616      C1617   1.416       .  A
C1616      C1632   1.522       .  S
C1617      H1620   1.081       .  S
C1621      C1622   1.412       .  A
C1621      C1626   1.422       .  A
C1621      C1708   1.475       .  S
C1622      C1623   1.395       .  A
C1622      H1627   1.083       .  S
C1623      C1624   1.393       .  A
C1624      C1625   1.404       .  A
C1624      H1628   1.063       .  S
C1625      C1626   1.413       .  A
C1625      C1634   1.519       .  S
C1626      H1629   1.083       .  S
C1630      C1631   1.427       .  A
C1630      C1635   1.428       .  A
C1630      C1693   1.522       .  S
C1631      C1632   1.407       .  A
C1631      H1636   1.072       .  S
C1632      C1633   1.406       .  A
C1633      C1634   1.408       .  A
C1633      H1637   1.078       .  S
C1634      C1635   1.411       .  A
C1635      H1638   1.082       .  S
O1639      C1650   1.291       .  A
O1640      C1651   1.292       .  A
O1641      C1652   1.293       .  A
O1642      C1653   1.292       .  A
O1642     Eu1647   2.465   1_556  S
O1643      C1653   1.294       .  A
O1644      C1652   1.292       .  A
O1645      C1651   1.290       .  A
O1645     Eu1647   2.451       .  S
O1646      C1650   1.288       .  A
O1646     Eu2259   2.443       .  S
Eu1647     O2258   2.442   1_544  S
O1648     Eu1677   2.360       .  S
O1648     Eu1674   2.354   1_556  S
O1649     Eu2287   2.348   1_545  S
O1649     Eu1676   2.352       .  S
C1650      C1828   1.468       .  S
C1651      C1816   1.477       .  S
C1652      C1744   1.486       .  S
C1653      C1780   1.489       .  S
H1654      O1655   0.966       .  S
O1655     Eu1676   2.352       .  S
H1656      O1657   0.966   1_565  S
O1657     Eu1981   2.357   1_545  S
O1657     Eu1677   2.347       .  S
O1658      C1681   1.292       .  A
O1658     Eu1674   2.463   1_556  S
O1659      C1682   1.290       .  A
O1659     Eu1675   2.457       .  S
O1660      C1683   1.293       .  A
O1660     Eu1676   2.466       .  S
O1661      C1684   1.292       .  A
O1661     Eu1677   2.462       .  S
O1662      C1685   1.292       .  A
O1662     Eu2289   2.461       .  S
O1663      C1686   1.295       .  A
O1663     Eu2288   2.475       .  S
O1664      C1687   1.292       .  A
O1664     Eu1678   2.459       .  S
O1665      C1688   1.290       .  A
O1666      C1687   1.291       .  A
O1666     Eu1676   2.458       .  S
O1667      C1688   1.295       .  A
O1667     Eu1677   2.475       .  S
O1668      C1683   1.289       .  A
O1669      C1686   1.290       .  A
O1669     Eu1675   2.455       .  S
O1670      C1685   1.288       .  A
O1671      C1684   1.290       .  A
O1671     Eu1674   2.454   1_556  S
O1672     Eu1678   2.448       .  S
O1673      C1682   1.290       .  A
O1673     Eu2290   2.449       .  S
Eu1674     O1692   2.359   1_554  S
Eu1675     O2261   2.346       .  S
Eu1675     O1963   2.362       .  S
Eu1675     O1985   2.350       .  S
Eu1675     O2302   2.354       .  S
Eu1676     O2275   2.478   1_545  S
Eu1676     O1690   2.347       .  S
Eu1676     O1680   2.356       .  S
Eu1677     O2274   2.479   1_545  S
Eu1677     O1679   2.352       .  S
Eu1677     O1692   2.353       .  S
Eu1678     O2285   2.447   1_545  S
Eu1678     O1690   2.352       .  S
Eu1678     O1680   2.346       .  S
O1679     Eu1981   2.346   1_545  S
C1681      C1801   1.478       .  S
C1682      C1792   1.470       .  S
C1683      C1705   1.476       .  S
C1684      C1732   1.468       .  S
C1685      C1717   1.491       .  S
C1686      C1696   1.501       .  S
C1687      C1756   1.483       .  S
C1688      C1765   1.497       .  S
H1689      O1690   0.966   1_565  S
O1690     Eu2287   2.354   1_545  S
H1691      O1692   0.965       .  S
C1693      C1694   1.414       .  A
C1693      C1698   1.425       .  A
C1694      C1695   1.404       .  A
C1694      H1699   1.083       .  S
C1695      C1696   1.416       .  A
C1695      C1702   1.445       .  S
C1696      C1697   1.402       .  A
C1697      C1698   1.404       .  A
C1697      H1700   1.085       .  S
C1698      C1701   1.436       .  S
C1701      N1703   1.155       .  T
C1702      N1704   1.157       .  T
C1705      C1706   1.408       .  A
C1705      C1710   1.410       .  A
C1706      C1707   1.405       .  A
C1706      H1711   1.085       .  S
C1707      C1708   1.407       .  A
C1707      C1714   1.442       .  S
C1708      C1709   1.403       .  A
C1709      C1710   1.396       .  A
C1713      N1715   1.157       .  T
C1714      N1716   1.157       .  T
C1717      C1718   1.409       .  A
C1717      C1722   1.418       .  A
C1718      C1719   1.403       .  A
C1718      H1723   1.085       .  S
C1719      C1720   1.409       .  A
C1719      C1726   1.438       .  S
C1720      C1721   1.406       .  A
C1721      C1722   1.395       .  A
C1721      H1724   1.085       .  S
C1722      C1725   1.446       .  S
C1725      N1727   1.158       .  T
C1726      N1728   1.155       .  T
C1729      C1730   1.403       .  A
C1729      C1734   1.410       .  A
C1730      C1731   1.403       .  A
C1731      C1732   1.409       .  A
C1732      C1733   1.400       .  A
C1733      C1734   1.398       .  A
C1733      H1736   1.085       .  S
C1734      C1737   1.444       .  S
C1737      N1739   1.157       .  T
C1738      N1740   1.157       .  T
C1741      C1742   1.401       .  A
C1741      C1746   1.420       .  A
C1742      C1743   1.402       .  A
C1742      H1747   1.085       .  S
C1743      C1744   1.414       .  A
C1743      C1750   1.436   1_545  S
C1744      C1745   1.401       .  A
C1745      C1746   1.400       .  A
C1745      H1748   1.085       .  S
C1746      C1749   1.445       .  S
C1749      N1751   1.157       .  T
C1750      N2364   1.154       .  T
N1752      C2362   1.154       .  T
C1753      C1754   1.406       .  A
C1753      C1758   1.420       .  A
C1754      C1755   1.404       .  A
C1754      H1759   1.084       .  S
C1755      C1756   1.415       .  A
C1755      C1762   1.443       .  S
C1756      C1757   1.401       .  A
C1757      C1758   1.397       .  A
C1757      H1760   1.085       .  S
C1758      C1761   1.446       .  S
C1761      N2375   1.157       .  T
C1762      N1764   1.157       .  T
N1763      C2373   1.157       .  T
C1765      C1766   1.403       .  A
C1765      C1770   1.420       .  A
C1766      C1767   1.401       .  A
C1766      H1771   1.085       .  S
C1767      C1768   1.423       .  A
C1767      C1774   1.445       .  S
C1768      C1769   1.406       .  A
C1769      C1770   1.404       .  A
C1769      H1772   1.083       .  S
C1770      C1773   1.443       .  S
C1773      N1775   1.157       .  T
C1774      N1776   1.158       .  T
C1777      C1778   1.409       .  A
C1777      C1782   1.415       .  A
C1778      C1779   1.402       .  A
C1778      H1783   1.085       .  S
C1779      C1780   1.412       .  A
C1779      C2398   1.445       .  S
C1780      C1781   1.405       .  A
C1781      C1782   1.406       .  A
C1781      H1784   1.083       .  S
C1782      C1785   1.443       .  S
C1785      N1787   1.157       .  T
C1786      C2391   1.445       .  S
C1786      N1788   1.157       .  T
C1789      C1790   1.403       .  A
C1790      C1791   1.402       .  A
C1790      H1795   1.085       .  S
C1791      C1792   1.411       .  A
C1791      C1798   1.441       .  S
C1793      C1794   1.395       .  A
C1793      H1796   1.082       .  S
C1794      C1797   1.445       .  S
C1797      N1799   1.157       .  T
C1798      N1800   1.156       .  T
C1801      C1806   1.415       .  A
C1802      C1803   1.396       .  A
C1802      H1807   1.085       .  S
C1803      C1810   1.446       .  S
C1804      C1805   1.403       .  A
C1805      C1806   1.402       .  A
C1805      H1808   1.084       .  S
C1806      C1809   1.443       .  S
C1809      N1811   1.157       .  T
C1810      N1812   1.157       .  T
C1813      C1818   1.416   1_554  A
C1814      C1815   1.402       .  A
C1814      H1819   1.085       .  S
C1815      C1822   1.442       .  S
C1816      C1817   1.401   1_554  A
C1817      C1818   1.398       .  A
C1817      H1820   1.085       .  S
C1818      C1821   1.445       .  S
C1821      N1823   1.157       .  T
C1822      N1824   1.156       .  T
C1825      C1826   1.401       .  A
C1826      C1827   1.402       .  A
C1826      H1831   1.084       .  S
C1827      C1828   1.411       .  A
C1827      C1834   1.442       .  S
C1829      C1830   1.394       .  A
C1829      H1832   1.085       .  S
C1830      C1833   1.446       .  S
C1833      N1835   1.157       .  T
C1834      N1836   1.157       .  T
C1837      C2144   1.422       .  A
C1837      C1842   1.419       .  A
C1837      C2437   1.474       .  S
C1838      C2143   1.423       .  A
C1838      C1839   1.404       .  A
C1838      H1843   1.083       .  S
C1839      C1840   1.397       .  A
C1839      C1848   1.504       .  S
C1840      C2147   1.396       .  A
C1840      H1844   1.060       .  S
C1841      C2146   1.397       .  A
C1841      C1842   1.396   1_554  A
C1841      C1866   1.495   1_554  S
C1842      H1845   1.083       .  S
C1846      C1847   1.424       .  A
C1846      C1851   1.426       .  A
C1846      C2119   1.483       .  S
C1847      C1848   1.400       .  A
C1847      H1852   1.083       .  S
C1848      C1849   1.398       .  A
C1849      C1850   1.398       .  A
C1849      H1853   1.058       .  S
C1850      C1851   1.401       .  A
C1850      C1857   1.507       .  S
C1851      H1854   1.083       .  S
C1855      C1856   1.429       .  A
C1855      C1860   1.422       .  A
C1855      C2110   1.487       .  S
C1856      C1857   1.405       .  A
C1856      H1861   1.082       .  S
C1857      C1858   1.396       .  A
C1858      C1859   1.394       .  A
C1858      H1862   1.058       .  S
C1859      C1860   1.397       .  A
C1859      C2174   1.496       .  S
C1860      H2169   1.083       .  S
H1863      C2166   1.083       .  S
C1864      C1865   1.421       .  A
C1864      C1869   1.420       .  A
C1864      C2095   1.475       .  S
C1865      C1866   1.400   1_554  A
C1865      H1870   1.083       .  S
C1866      C1867   1.395       .  A
C1867      C1868   1.396       .  A
C1867      H1871   1.061       .  S
C1868      C1869   1.399   1_556  A
C1868      C2165   1.494   1_556  S
C1869      H1872   1.083       .  S
C1873      C1874   1.434       .  A
C1873      C1878   1.432       .  A
C1873      C2083   1.497       .  S
C1874      C1875   1.406       .  A
C1874      H1879   1.083       .  S
C1875      C1876   1.394       .  A
C1875      C1884   1.516       .  S
C1876      C1877   1.394       .  A
C1876      H1880   1.055       .  S
C1877      C1878   1.402       .  A
C1877      C1902   1.511       .  S
C1878      H1881   1.081       .  S
C1882      C1883   1.436       .  A
C1882      C1887   1.428       .  A
C1882      C2074   1.505       .  S
C1883      C1884   1.406       .  A
C1883      H1888   1.081       .  S
C1884      C1885   1.398       .  A
C1885      C1886   1.394       .  A
C1885      H1889   1.058       .  S
C1886      C1887   1.401       .  A
C1886      C1895   1.504       .  S
C1887      H1890   1.083       .  S
C1891      C1892   1.423       .  A
C1891      C1896   1.426       .  A
C1891      C2059   1.491       .  S
C1892      C1893   1.399       .  A
C1892      H1897   1.083       .  S
C1893      C1894   1.398       .  A
C1893      C1904   1.498       .  S
C1894      C1895   1.399       .  A
C1894      H1898   1.064       .  S
C1895      C1896   1.404       .  A
C1896      H1899   1.082       .  S
C1900      C1901   1.430       .  A
C1900      C1905   1.423       .  A
C1900      C2047   1.490       .  S
C1901      C1902   1.406       .  A
C1901      H1906   1.082       .  S
C1902      C1903   1.399       .  A
C1903      C1904   1.395       .  A
C1903      H1907   1.061       .  S
C1904      C1905   1.398       .  A
C1905      H1908   1.083       .  S
C1909      C1910   1.416       .  A
C1909      C1914   1.410       .  A
C1909      C2035   1.480       .  S
C1910      C1911   1.410       .  A
C1910      H1915   1.083       .  S
C1911      C1912   1.412       .  A
C1911      C1920   1.512       .  S
C1912      C1913   1.403       .  A
C1912      H1916   1.082       .  S
C1913      C1914   1.400       .  A
C1913      C1929   1.486       .  S
C1914      H1917   1.083       .  S
C1918      C1919   1.425       .  A
C1918      C1923   1.409       .  A
C1918      C2026   1.489       .  S
C1919      C1920   1.416       .  A
C1919      H1924   1.082       .  S
C1920      C1921   1.404       .  A
C1921      C1922   1.387       .  A
C1921      H1925   1.076       .  S
C1922      C1923   1.386       .  A
C1922      C1938   1.470       .  S
C1923      H1926   1.084       .  S
C1927      C1928   1.408       .  A
C1927      C1932   1.420       .  A
C1927      C2014   1.476       .  S
C1928      C1929   1.392       .  A
C1928      H1933   1.084       .  S
C1929      C1930   1.397       .  A
C1930      C1931   1.414       .  A
C1930      H1934   1.076       .  S
C1931      C1932   1.413       .  A
C1931      C1940   1.522       .  S
C1932      H1935   1.082       .  S
C1936      C1937   1.408       .  A
C1936      C1941   1.435       .  A
C1936      C1999   1.519       .  S
C1937      C1938   1.390       .  A
C1937      H1942   1.080       .  S
C1938      C1939   1.398       .  A
C1939      C1940   1.407       .  A
C1939      H1943   1.082       .  S
C1940      C1941   1.421       .  A
C1941      H1944   1.077       .  S
O1945      C1956   1.291       .  A
O1946      C1957   1.292       .  A
O1947      C1958   1.293       .  A
O1947     Eu2259   2.467   1_554  S
O1948      C1959   1.292       .  A
O1948     Eu1953   2.462       .  S
O1949      C1959   1.294       .  A
O1950      C1958   1.292       .  A
O1951      C1957   1.290       .  A
O1951     Eu1953   2.451       .  S
O1952      C1956   1.289       .  A
Eu1953     O2253   2.466       .  S
O1954     Eu1983   2.359       .  S
O1954     Eu1980   2.355       .  S
O1955     Eu1982   2.353       .  S
C1956      C2134   1.470       .  S
C1957      C2122   1.477       .  S
C1958      C2050   1.486       .  S
C1959      C2086   1.488       .  S
H1960      O1961   0.966       .  S
O1961     Eu1982   2.348       .  S
O1961     Eu2286   2.357       .  S
H1962      O1963   0.966       .  S
O1963     Eu1983   2.351       .  S
O1964      C1987   1.293       .  A
O1964     Eu1980   2.465       .  S
O1965      C1988   1.291       .  A
O1965     Eu1981   2.461   1_554  S
O1966      C1989   1.293       .  A
O1966     Eu1982   2.467       .  S
O1967      C1990   1.294       .  A
O1967     Eu1983   2.479       .  S
O1968      C1991   1.297       .  A
O1969      C1992   1.297       .  A
O1970      C1993   1.292       .  A
O1970     Eu1984   2.456       .  S
O1971      C1994   1.290       .  A
O1971     Eu2290   2.456       .  S
O1972      C1993   1.291       .  A
O1972     Eu1982   2.459       .  S
O1973      C1994   1.295       .  A
O1973     Eu1983   2.476       .  S
O1974      C1989   1.290       .  A
O1974     Eu2286   2.453       .  S
O1975      C1992   1.285       .  A
O1975     Eu1981   2.431   1_554  S
O1976      C1991   1.285       .  A
O1976     Eu2287   2.427       .  S
O1977      C1990   1.288       .  A
O1977     Eu1980   2.444       .  S
O1978      C2293   1.289       .  A
O1978     Eu1984   2.445   1_556  S
O1979      C1988   1.289       .  A
Eu1980     O2280   2.458       .  S
Eu1980     O2267   2.356       .  S
Eu1980     O1998   2.360       .  S
Eu1980     O2292   2.345       .  S
Eu1981     O2282   2.430       .  S
Eu1982     O1996   2.348       .  S
Eu1982     O1986   2.357       .  S
Eu1983     O1985   2.356       .  S
Eu1983     O1998   2.351       .  S
Eu1984     O2277   2.452   1_554  S
Eu1984     O2291   2.343   1_554  S
Eu1984     O1996   2.350       .  S
Eu1984     O2304   2.354   1_554  S
Eu1984     O1986   2.349       .  S
O1985     Eu2290   2.345       .  S
O1986     Eu2286   2.346       .  S
C1987      C2107   1.479       .  S
C1987      O2284   1.289       .  A
C1988      C2098   1.471       .  S
C1989      C2011   1.478       .  S
C1990      C2038   1.470       .  S
C1991      C2023   1.494       .  S
C1992      C2002   1.498       .  S
C1993      C2062   1.482       .  S
C1994      C2071   1.498       .  S
H1995      O1996   0.965       .  S
H1997      O1998   0.965       .  S
O1998     Eu2290   2.350       .  S
C1999      C2000   1.412       .  A
C1999      C2004   1.433       .  A
C2000      C2001   1.405       .  A
C2000      H2005   1.079       .  S
C2001      C2002   1.420       .  A
C2001      C2008   1.445       .  S
C2002      C2003   1.397       .  A
C2003      C2004   1.395       .  A
C2003      H2006   1.085       .  S
C2004      C2007   1.446       .  S
C2007      N2009   1.158       .  T
C2008      N2010   1.157       .  T
C2011      C2012   1.406       .  A
C2011      C2016   1.411       .  A
C2012      C2013   1.404       .  A
C2012      H2017   1.085       .  S
C2013      C2014   1.409       .  A
C2013      C2020   1.443       .  S
C2014      C2015   1.402       .  A
C2015      C2016   1.399       .  A
C2019      N2021   1.157   1_455  T
C2020      N2022   1.157       .  T
C2023      C2024   1.403       .  A
C2023      C2028   1.425       .  A
C2024      C2025   1.398       .  A
C2024      H2029   1.085       .  S
C2025      C2026   1.418       .  A
C2025      C2032   1.446       .  S
C2026      C2027   1.400       .  A
C2027      C2028   1.402       .  A
C2027      H2030   1.085       .  S
C2028      C2031   1.445       .  S
C2031      N2033   1.157       .  T
C2032      N2034   1.157       .  T
C2035      C2036   1.406       .  A
C2035      C2040   1.412       .  A
C2036      C2037   1.405       .  A
C2037      C2038   1.410       .  A
C2038      C2039   1.400       .  A
C2039      C2040   1.398       .  A
C2039      H2042   1.085       .  S
C2040      C2043   1.444       .  S
C2043      N2045   1.157       .  T
C2044      N2046   1.157       .  T
C2047      C2048   1.401       .  A
C2047      C2052   1.420       .  A
C2048      C2049   1.402       .  A
C2048      H2053   1.085       .  S
C2049      C2050   1.414       .  A
C2049      C2056   1.436       .  S
C2050      C2051   1.401       .  A
C2051      C2052   1.401       .  A
C2051      H2054   1.085       .  S
C2052      C2055   1.445       .  S
C2055      N2057   1.157       .  T
C2059      C2060   1.406       .  A
C2059      C2064   1.420       .  A
C2060      C2061   1.404       .  A
C2060      H2065   1.084       .  S
C2061      C2062   1.414       .  A
C2061      C2068   1.443       .  S
C2062      C2063   1.401       .  A
C2063      C2064   1.397       .  A
C2063      H2066   1.085       .  S
C2064      C2067   1.446       .  S
C2068      N2070   1.157       .  T
C2071      C2072   1.403       .  A
C2071      C2076   1.420       .  A
C2072      C2073   1.401       .  A
C2072      H2077   1.085       .  S
C2073      C2074   1.423       .  A
C2073      C2080   1.445       .  S
C2074      C2075   1.406       .  A
C2075      C2076   1.405       .  A
C2075      H2078   1.083       .  S
C2076      C2079   1.443       .  S
C2079      N2081   1.157       .  T
C2080      N2082   1.158       .  T
C2083      C2084   1.409       .  A
C2083      C2088   1.415       .  A
C2084      C2085   1.402       .  A
C2084      H2089   1.085       .  S
C2085      C2086   1.412       .  A
C2086      C2087   1.405       .  A
C2087      C2088   1.406       .  A
C2087      H2090   1.083       .  S
C2088      C2091   1.443       .  S
C2091      N2093   1.157       .  T
C2092      N2094   1.157   1_545  T
C2095      C2096   1.402       .  A
C2095      C2406   1.415   1_554  A
C2096      C2097   1.401       .  A
C2096      H2101   1.085       .  S
C2097      C2098   1.411       .  A
C2097      C2104   1.440       .  S
C2098      C2405   1.397   1_554  A
C2099      C2404   1.397       .  A
C2099      C2100   1.394       .  A
C2099      H2102   1.082       .  S
C2100      C2401   1.415       .  A
C2100      C2103   1.446       .  S
C2103      N2105   1.157       .  T
C2104      N2106   1.156       .  T
C2107      C2414   1.399       .  A
C2107      C2112   1.415       .  A
C2108      C2413   1.398   1_554  A
C2108      C2109   1.396       .  A
C2108      H2113   1.085       .  S
C2109      C2416   1.420   1_554  A
C2109      C2116   1.446       .  S
C2110      C2415   1.420       .  A
C2110      C2111   1.403       .  A
C2111      C2112   1.402       .  A
C2111      H2114   1.084       .  S
C2112      C2115   1.442       .  S
C2115      N2117   1.157       .  T
C2116      N2118   1.157       .  T
C2119      C2426   1.403       .  A
C2119      C2124   1.416       .  A
C2120      C2425   1.404       .  A
C2120      C2121   1.402       .  A
C2120      H2125   1.085       .  S
C2121      C2428   1.413       .  A
C2121      C2128   1.442       .  S
C2122      C2427   1.413       .  A
C2122      C2123   1.400       .  A
C2123      C2124   1.397       .  A
C2123      H2126   1.085       .  S
C2124      C2127   1.445       .  S
C2127      N2129   1.157       .  T
C2128      N2130   1.156       .  T
C2131      C2132   1.402       .  A
C2131      C2442   1.416       .  A
C2131      C2143   1.477       .  S
C2132      C2133   1.403       .  A
C2132      H2137   1.084       .  S
C2133      C2134   1.411       .  A
C2133      C2140   1.442       .  S
C2134      C2441   1.398       .  A
C2135      C2440   1.397   1_554  A
C2135      C2136   1.394       .  A
C2135      H2138   1.085       .  S
C2136      C2437   1.416   1_554  A
C2136      C2139   1.446       .  S
C2139      N2141   1.157       .  T
C2140      N2142   1.157       .  T
C2143      C2148   1.421       .  A
C2144      C2145   1.403   1_556  A
C2144      H2149   1.083       .  S
C2145      C2146   1.398       .  A
C2145      C2154   1.503   1_554  S
C2146      H2150   1.060       .  S
C2147      C2148   1.397       .  A
C2147      C2172   1.497       .  S
C2148      H2151   1.083       .  S
C2152      C2153   1.424       .  A
C2152      C2157   1.426       .  A
C2152      C2425   1.483       .  S
C2153      C2154   1.400   1_554  A
C2153      H2158   1.083       .  S
C2154      C2155   1.397       .  A
C2155      C2156   1.398       .  A
C2155      H2159   1.059       .  S
C2156      C2157   1.402   1_556  A
C2156      C2163   1.506   1_556  S
C2157      H2160   1.083       .  S
C2161      C2162   1.428       .  A
C2161      C2166   1.421       .  A
C2161      C2416   1.484       .  S
C2162      C2163   1.405   1_556  A
C2162      H2167   1.082       .  S
C2163      C2164   1.396       .  A
C2164      C2165   1.395       .  A
C2164      H2168   1.058       .  S
C2165      C2166   1.395   1_554  A
C2170      C2171   1.422       .  A
C2170      C2175   1.420       .  A
C2170      C2401   1.476       .  S
C2171      C2172   1.400       .  A
C2171      H2176   1.083       .  S
C2172      C2173   1.396       .  A
C2173      C2174   1.396       .  A
C2173      H2177   1.061       .  S
C2174      C2175   1.399       .  A
C2175      H2178   1.083       .  S
C2179      C2180   1.433       .  A
C2179      C2184   1.431       .  A
C2179      C2389   1.496       .  S
C2180      C2181   1.406       .  A
C2180      H2185   1.083       .  S
C2181      C2182   1.394       .  A
C2181      C2190   1.515       .  S
C2182      C2183   1.394       .  A
C2182      H2186   1.056       .  S
C2183      C2184   1.402       .  A
C2183      C2208   1.510       .  S
C2184      H2187   1.081       .  S
C2188      C2189   1.435       .  A
C2188      C2193   1.427       .  A
C2188      C2380   1.503       .  S
C2189      C2190   1.406       .  A
C2189      H2194   1.081       .  S
C2190      C2191   1.398       .  A
C2191      C2192   1.394       .  A
C2191      H2195   1.058       .  S
C2192      C2193   1.400       .  A
C2192      C2201   1.503       .  S
C2193      H2196   1.083       .  S
C2197      C2198   1.422       .  A
C2197      C2202   1.425       .  A
C2197      C2365   1.489       .  S
C2198      C2199   1.399       .  A
C2198      H2203   1.083       .  S
C2199      C2200   1.398       .  A
C2199      C2210   1.497       .  S
C2200      C2201   1.400       .  A
C2200      H2204   1.065       .  S
C2201      C2202   1.403       .  A
C2202      H2205   1.082       .  S
C2206      C2207   1.430       .  A
C2206      C2211   1.422       .  A
C2206      C2353   1.489       .  S
C2207      C2208   1.406       .  A
C2207      H2212   1.082       .  S
C2208      C2209   1.399       .  A
C2209      C2210   1.395       .  A
C2209      H2213   1.061       .  S
C2210      C2211   1.398       .  A
C2211      H2214   1.083       .  S
C2215      C2216   1.414       .  A
C2215      C2220   1.410       .  A
C2215      C2341   1.479       .  S
C2216      C2217   1.409       .  A
C2216      H2221   1.083       .  S
C2217      C2218   1.412       .  A
C2217      C2226   1.510       .  S
C2218      C2219   1.403       .  A
C2218      H2222   1.082       .  S
C2219      C2220   1.400       .  A
C2219      C2235   1.486       .  S
C2220      H2223   1.083       .  S
C2224      C2225   1.424       .  A
C2224      C2229   1.409       .  A
C2224      C2332   1.488       .  S
C2225      C2226   1.415       .  A
C2225      H2230   1.082       .  S
C2226      C2227   1.403       .  A
C2227      C2228   1.387       .  A
C2227      H2231   1.076       .  S
C2228      C2229   1.387       .  A
C2228      C2244   1.470       .  S
C2229      H2232   1.084       .  S
C2233      C2234   1.409       .  A
C2233      C2238   1.419       .  A
C2233      C2320   1.477       .  S
C2234      C2235   1.393       .  A
C2234      H2239   1.084       .  S
C2235      C2236   1.397       .  A
C2236      C2237   1.414       .  A
C2236      H2240   1.076       .  S
C2237      C2238   1.413       .  A
C2237      C2246   1.521       .  S
C2238      H2241   1.082       .  S
C2242      C2243   1.407       .  A
C2242      C2247   1.434       .  A
C2242      C2305   1.519       .  S
C2243      C2244   1.390       .  A
C2243      H2248   1.080       .  S
C2244      C2245   1.398       .  A
C2245      C2246   1.408       .  A
C2245      H2249   1.082       .  S
C2246      C2247   1.420       .  A
C2247      H2250   1.077       .  S
O2251      C2262   1.290       .  A
O2252      C2263   1.292       .  A
O2253      C2264   1.293       .  A
O2254      C2265   1.292       .  A
O2254     Eu2259   2.463       .  S
O2255      C2265   1.294       .  A
O2256      C2264   1.292       .  A
O2257      C2263   1.290       .  A
O2257     Eu2259   2.449   1_554  S
O2258      C2262   1.288       .  A
O2260     Eu2289   2.355       .  S
O2260     Eu2286   2.353   1_556  S
O2261     Eu2288   2.353       .  S
C2262      C2440   1.466       .  S
C2263      C2428   1.476       .  S
C2264      C2356   1.485       .  S
C2265      C2392   1.487       .  S
H2266      O2267   0.966       .  S
O2267     Eu2288   2.352       .  S
H2268      O2269   0.966       .  S
O2269     Eu2289   2.354       .  S
O2270      C2293   1.293       .  A
O2270     Eu2286   2.465   1_556  S
O2271      C2294   1.291       .  A
O2271     Eu2287   2.462       .  S
O2272      C2295   1.292       .  A
O2272     Eu2288   2.463       .  S
O2273      C2296   1.293       .  A
O2273     Eu2289   2.469       .  S
O2274      C2297   1.296       .  A
O2275      C2298   1.296       .  A
O2276      C2299   1.291       .  A
O2276     Eu2290   2.454       .  S
O2277      C2300   1.289       .  A
O2278      C2299   1.291       .  A
O2278     Eu2288   2.457       .  S
O2279      C2300   1.295       .  A
O2279     Eu2289   2.475       .  S
O2280      C2295   1.290       .  A
O2281      C2298   1.285       .  A
O2281     Eu2287   2.432       .  S
O2282      C2297   1.285       .  A
O2283      C2296   1.288       .  A
O2283     Eu2286   2.445   1_556  S
O2284     Eu2290   2.451       .  S
O2285      C2294   1.289       .  A
Eu2286     O2304   2.358   1_554  S
Eu2288     O2302   2.347       .  S
Eu2288     O2292   2.358       .  S
Eu2289     O2291   2.355       .  S
Eu2289     O2304   2.347       .  S
Eu2290     O2302   2.355       .  S
Eu2290     O2292   2.350       .  S
C2293      C2413   1.476       .  S
C2294      C2404   1.471       .  S
C2295      C2317   1.478       .  S
C2296      C2344   1.468       .  S
C2297      C2329   1.493       .  S
C2298      C2308   1.497       .  S
C2299      C2368   1.481       .  S
C2300      C2377   1.497       .  S
H2301      O2302   0.966       .  S
H2303      O2304   0.965       .  S
C2305      C2306   1.412       .  A
C2305      C2310   1.433       .  A
C2306      C2307   1.405       .  A
C2306      H2311   1.079       .  S
C2307      C2308   1.420       .  A
C2307      C2314   1.445       .  S
C2308      C2309   1.397       .  A
C2309      C2310   1.394       .  A
C2309      H2312   1.085       .  S
C2310      C2313   1.446       .  S
C2313      N2315   1.158       .  T
C2314      N2316   1.157       .  T
C2317      C2318   1.406       .  A
C2317      C2322   1.412       .  A
C2318      C2319   1.404       .  A
C2318      H2323   1.085       .  S
C2319      C2320   1.409       .  A
C2319      C2326   1.443       .  S
C2320      C2321   1.401       .  A
C2321      C2322   1.399       .  A
C2325      N2327   1.157       .  T
C2326      N2328   1.157       .  T
C2329      C2330   1.404       .  A
C2329      C2334   1.424       .  A
C2330      C2331   1.397       .  A
C2330      H2335   1.085       .  S
C2331      C2332   1.417       .  A
C2331      C2338   1.446       .  S
C2332      C2333   1.400       .  A
C2333      C2334   1.402       .  A
C2333      H2336   1.085       .  S
C2334      C2337   1.445       .  S
C2337      N2339   1.157       .  T
C2338      N2340   1.157       .  T
C2341      C2342   1.406       .  A
C2341      C2346   1.412       .  A
C2342      C2343   1.404       .  A
C2343      C2344   1.409       .  A
C2344      C2345   1.399       .  A
C2345      C2346   1.396       .  A
C2345      H2348   1.085       .  S
C2346      C2349   1.444       .  S
C2349      N2351   1.157       .  T
C2350      N2352   1.157       .  T
C2353      C2354   1.400       .  A
C2353      C2358   1.420       .  A
C2354      C2355   1.401       .  A
C2354      H2359   1.085       .  S
C2355      C2356   1.414       .  A
C2355      C2362   1.436       .  S
C2356      C2357   1.401       .  A
C2357      C2358   1.400       .  A
C2357      H2360   1.085       .  S
C2358      C2361   1.445       .  S
C2361      N2363   1.157       .  T
C2365      C2366   1.406       .  A
C2365      C2370   1.419       .  A
C2366      C2367   1.403       .  A
C2366      H2371   1.084       .  S
C2367      C2368   1.414       .  A
C2367      C2374   1.443       .  S
C2368      C2369   1.400       .  A
C2369      C2370   1.396       .  A
C2369      H2372   1.085       .  S
C2370      C2373   1.446       .  S
C2374      N2376   1.157       .  T
C2377      C2378   1.403       .  A
C2377      C2382   1.420       .  A
C2378      C2379   1.401       .  A
C2378      H2383   1.085       .  S
C2379      C2380   1.423       .  A
C2379      C2386   1.445       .  S
C2380      C2381   1.406       .  A
C2381      C2382   1.404       .  A
C2381      H2384   1.083       .  S
C2382      C2385   1.443       .  S
C2385      N2387   1.157       .  T
C2386      N2388   1.158       .  T
C2389      C2390   1.409       .  A
C2389      C2394   1.415       .  A
C2390      C2391   1.402       .  A
C2390      H2395   1.085       .  S
C2391      C2392   1.412       .  A
C2392      C2393   1.405       .  A
C2393      C2394   1.405       .  A
C2393      H2396   1.083       .  S
C2394      C2397   1.443       .  S
C2397      N2399   1.157       .  T
C2398      N2400   1.157   1_545  T
C2401      C2402   1.402       .  A
C2402      C2403   1.401       .  A
C2402      H2407   1.085       .  S
C2403      C2404   1.411       .  A
C2403      C2410   1.440       .  S
C2405      C2406   1.394       .  A
C2405      H2408   1.082       .  S
C2406      C2409   1.446       .  S
C2409      N2411   1.157       .  T
C2410      N2412   1.156       .  T
C2413      C2418   1.415       .  A
C2414      C2415   1.397       .  A
C2414      H2419   1.085       .  S
C2415      C2422   1.446       .  S
C2416      C2417   1.401       .  A
C2417      C2418   1.401       .  A
C2417      H2420   1.085       .  S
C2418      C2421   1.442       .  S
C2421      N2423   1.156       .  T
C2422      N2424   1.157       .  T
C2425      C2430   1.416   1_554  A
C2426      C2427   1.402       .  A
C2426      H2431   1.085       .  S
C2427      C2434   1.441       .  S
C2428      C2429   1.400   1_554  A
C2429      C2430   1.397       .  A
C2429      H2432   1.085       .  S
C2430      C2433   1.445       .  S
C2433      N2435   1.157       .  T
C2434      N2436   1.156       .  T
C2437      C2438   1.401       .  A
C2438      C2439   1.401       .  A
C2438      H2443   1.084       .  S
C2439      C2440   1.411       .  A
C2439      C2446   1.442       .  S
C2441      C2442   1.395       .  A
C2441      H2444   1.085       .  S
C2442      C2445   1.446       .  S
C2445      N2447   1.157       .  T
C2446      N2448   1.157       .  T
