geometry optimzed in LAMMPS
_audit_creation_date              2020-12-01 
_audit_creation_method            'lammps2cif' 
_symmetry_space_group_name_H-M    'P1' 
_symmetry_Int_Tables_number       1 
_symmetry_cell_setting            triclinic 
loop_ 
_symmetry_equiv_pos_as_xyz 
  x,y,z 
_cell_length_a                    44.82672133 
_cell_length_b                    44.5967052722466 
_cell_length_c                    43.489628901273726 
_cell_angle_alpha                 89.55203822464782 
_cell_angle_beta                  94.02231520917626 
_cell_angle_gamma                 90.23925559961349 
loop_ 
_atom_site_label 
_atom_site_type_symbol 
_atom_site_fract_x 
_atom_site_fract_y 
_atom_site_fract_z 
_atom_site_charge 
C1          C  0.37944085  0.37328551  0.37602568    -0.01900
C2          C  0.12386840  0.14239419  0.13067756    -0.01900
N3          N  0.04511691  0.51045383  0.44495111    -0.05500
N4          N  0.06674371  0.50573332  0.42651803    -0.57700
N5          N  0.49484505  0.06251453  0.45417510    -0.05200
N6          N  0.48033548  0.08705999  0.44542323    -0.59800
N7          N  0.02059347  0.06933503  0.46907320    -0.04800
N8          N  0.02409887  0.09872400  0.47061482    -0.57600
N9          N  0.01904435  0.50348588  0.43082230    -0.04500
N10         N  0.52247109  0.49417993  0.40257352    -0.60100
C11         C  0.05230296  0.49519815  0.40051875     0.96600
C12         C  0.99861532  0.10921568  0.45604896     0.96400
N13         N  0.42818669  0.01950439  0.49548989    -0.05700
N14         N  0.40853698  0.03730488  0.00742881    -0.58200
N15         N  0.45777869  0.47038758  0.44641363    -0.03800
N16         N  0.44775375  0.45524097  0.42157731    -0.59500
N17         N  0.44849829  0.45764090  0.47144493    -0.05800
N18         N  0.43214859  0.43349051  0.46399794    -0.58500
N19         N  0.43672875  0.03110975  0.46965655    -0.03500
N20         N  0.42296687  0.05659543  0.46322660    -0.59600
Mn21       Mn  0.47710135  0.01654958  0.44934597     1.18400
C22         C  0.40523262  0.05998501  0.48656946     0.98700
C23         C  0.43210740  0.43194741  0.43280955     0.99400
N24         N  0.05479633  0.05808070  0.03512984    -0.05800
N25         N  0.07121959  0.08217634  0.04261569    -0.62100
N26         N  0.06652083  0.48463556  0.03681478    -0.04600
N27         N  0.08028116  0.45914015  0.04317738    -0.62800
N28         N  0.07505791  0.49628928  0.51100262    -0.05300
N29         N  0.09469436  0.47852448  0.49900691    -0.62300
N30         N  0.04551581  0.04531037  0.06015017    -0.04200
N31         N  0.05561111  0.06038366  0.08501050    -0.63000
Mn32       Mn  0.04970802  0.03413983  0.48967034     1.10700
C33         C  0.07130336  0.08366187  0.07381436     0.99900
C34         C  0.09800285  0.45581171  0.01981462     1.00000
N35         N  0.48265207  0.44637880  0.03749532    -0.05300
N36         N  0.47914061  0.41698010  0.03603679    -0.60700
N37         N  0.48420747  0.01222299  0.07572702    -0.04600
N38         N  0.48078029  0.02148016  0.10399369    -0.57400
N39         N  0.45813014  0.00528466  0.06158714    -0.05900
N40         N  0.43650376  0.00997368  0.08002944    -0.60200
N41         N  0.50841305  0.45321758  0.05235731    -0.04900
N42         N  0.02292230  0.42869044  0.06116259    -0.57400
Mn43       Mn  0.45353941  0.48160924  0.01687071     1.20200
Mn44       Mn  0.02615839  0.49916882  0.05717589     1.10100
Cl45       Cl  0.50162512  0.00786938  0.50326835    -0.85400
C46         C  0.50463646  0.40651285  0.05061662     0.97000
C47         C  0.45094659  0.02045974  0.10604878     0.96700
N48         N  0.30293474  0.20798494  0.51808056    -0.05500
N49         N  0.31614488  0.18235583  0.51354122    -0.57700
N50         N  0.29611924  0.26432994  0.06552327    -0.05200
N51         N  0.30584750  0.27848682  0.09077893    -0.59800
N52         N  0.27939719  0.24118171  0.07254196    -0.04800
N53         N  0.27769759  0.23904395  0.10266936    -0.57600
N54         N  0.31991579  0.23073665  0.51045992    -0.04500
N55         N  0.34540339  0.22066227  0.50076936    -0.60100
C56         C  0.34229392  0.19045355  0.50277036     0.96600
C57         C  0.29391198  0.26272378  0.11351196     0.96400
N58         N  0.26392972  0.33247361  0.00789331    -0.05700
N59         N  0.25496795  0.35869108  0.01769082    -0.58200
N60         N  0.31217901  0.29283814  0.46906904    -0.03800
N61         N  0.33735171  0.30168181  0.45703451    -0.59500
N62         N  0.28896785  0.30253856  0.45157593    -0.05800
N63         N  0.29793179  0.31779821  0.42753634    -0.58500
N64         N  0.28670043  0.32246801  0.02566422    -0.03500
N65         N  0.29375362  0.34165684  0.04807875    -0.59600
Mn66       Mn  0.30490368  0.27742113  0.01775914     1.18400
C67         C  0.27390871  0.36419460  0.04258058     0.98700
C68         C  0.32818652  0.31682817  0.43071190     0.99400
N69         N  0.21426777  0.21357427  0.05556045    -0.05800
N70         N  0.20527241  0.19826836  0.07955265    -0.62100
N71         N  0.21663872  0.19355148  0.48149382    -0.04600
N72         N  0.20961065  0.17430061  0.45913068    -0.62800
N73         N  0.23935223  0.18356178  0.49935768    -0.05300
N74         N  0.24830665  0.15730180  0.48967085    -0.62300
N75         N  0.19107441  0.22319288  0.03798767    -0.04200
N76         N  0.16588696  0.21425791  0.04992306    -0.63000
Mn77       Mn  0.25926900  0.21138079  0.03705149     1.10700
C78         C  0.17502067  0.19913688  0.07626347     0.99900
C79         C  0.22941757  0.15174927  0.46475685     1.00000
N80         N  0.22385843  0.27497749  0.43462726    -0.05300
N81         N  0.22554298  0.27722467  0.40450883    -0.60700
N82         N  0.18333056  0.28521655  0.99663126    -0.04600
N83         N  0.15774299  0.29520419  0.00614498    -0.57400
N84         N  0.20030930  0.30801511  0.98913545    -0.05900
N85         N  0.18699176  0.33360103  0.99359075    -0.60200
N86         N  0.20718287  0.25177065  0.44157810    -0.04900
N87         N  0.19745467  0.23769088  0.41627418    -0.57400
Mn88       Mn  0.24398419  0.30471054  0.47016199     1.20200
Mn89       Mn  0.19839526  0.23859207  0.48932291     1.10100
Cl90       Cl  0.25163776  0.25802303  0.00356762    -0.85400
C91         C  0.20935743  0.25356122  0.39359262     0.97000
C92         C  0.16079019  0.32541289  0.00418417     0.96700
N93         N  0.44216171  0.26195240  0.20624032    -0.05500
N94         N  0.41456341  0.25292612  0.19890121    -0.57700
N95         N  0.50226433  0.30167178  0.19191281    -0.05200
N96         N  0.01199015  0.32167593  0.17242019    -0.59800
N97         N  0.50268004  0.27473889  0.17973271    -0.04800
N98         N  0.01251612  0.27582709  0.15190909    -0.57600
N99         N  0.44198147  0.28853804  0.21924747    -0.04500
N100        N  0.41433710  0.29813731  0.22098087    -0.60100
C101        C  0.39766663  0.27551727  0.20846561     0.96600
C102        C  0.01869365  0.30507849  0.14796375     0.96400
N103        N  0.03974334  0.31708001  0.28076277    -0.05700
N104        N  0.06818604  0.32481213  0.28362587    -0.58200
N105        N  0.46426352  0.31733611  0.28282276    -0.03800
N106        N  0.44022735  0.33262113  0.28971979    -0.59500
N107        N  0.47776629  0.30589133  0.30803881    -0.05800
N108        N  0.46324444  0.31321092  0.33250625    -0.58500
N109        N  0.02682199  0.32795881  0.25501566    -0.03500
N110        N  0.04643114  0.34319273  0.23969928    -0.59600
Mn111      Mn  0.48339473  0.31006945  0.23693395     1.18400
C112        C  0.07188127  0.34133657  0.25817871     0.98700
C113        C  0.43971150  0.32985656  0.32085528     0.99400
N114        N  0.02589230  0.21007145  0.19882364    -0.05800
N115        N  0.04030185  0.20264275  0.17432034    -0.62100
N116        N  0.47694721  0.18801744  0.25186907    -0.04600
N117        N  0.45738961  0.17268849  0.26715812    -0.62800
N118        N  0.46399125  0.19891187  0.22614381    -0.05300
N119        N  0.43557203  0.19109851  0.22326989    -0.62300
N120        N  0.03942439  0.19863072  0.22402590    -0.04200
N121        N  0.06337221  0.18323312  0.21708205    -0.63000
Mn122      Mn  0.48361810  0.23604719  0.20168444     1.10700
C123        C  0.06379772  0.18593569  0.18593459     0.99900
C124        C  0.43193339  0.17450317  0.24868459     1.00000
N125        N  0.00109670  0.24125519  0.32715498    -0.05300
N126        N  0.49135635  0.24016051  0.35501817    -0.60700
N127        N  0.06176679  0.22749568  0.28758952    -0.04600
N128        N  0.08942032  0.21793833  0.28581462    -0.57400
N129        N  0.06156339  0.25407056  0.30061988    -0.05900
N130        N  0.08915382  0.26313109  0.30793086    -0.60200
N131        N  0.00154828  0.21431719  0.31498949    -0.04900
N132        N  0.49193842  0.19429941  0.33453425    -0.57400
Mn133      Mn  0.02009394  0.27995195  0.30519560     1.20200
Mn134      Mn  0.02036443  0.20592641  0.26993651     1.10100
Cl135      Cl  0.50186459  0.25799379  0.25343876    -0.85400
C136        C  0.48527287  0.21089796  0.35900300     0.97000
C137        C  0.10606878  0.24057651  0.29832336     0.96700
N138        N  0.28226425  0.45393804  0.30461392    -0.05500
N139        N  0.29062390  0.42855539  0.31900206    -0.57700
N140        N  0.27477961  0.02581415  0.32617392    -0.05200
N141        N  0.27792910  0.04743430  0.34674501    -0.59800
N142        N  0.25093727  0.00954978  0.33063968    -0.04800
N143        N  0.23725504  0.01979886  0.35439473    -0.57600
N144        N  0.30593129  0.47053526  0.29999016    -0.04500
N145        N  0.33064498  0.45671798  0.31106984    -0.60100
C146        C  0.32099004  0.43030125  0.32256344     0.96600
C147        C  0.25456796  0.04321113  0.36432283     0.96400
N148        N  0.28283884  0.07490033  0.24493927    -0.05700
N149        N  0.28922611  0.10345667  0.24030479    -0.58200
N150        N  0.32407726  0.51280816  0.24344772    -0.03800
N151        N  0.35255473  0.50610976  0.24126191    -0.59500
N152        N  0.31176504  0.52149316  0.21639449    -0.05800
N153        N  0.33145605  0.52051287  0.19537880    -0.58500
N154        N  0.29476221  0.06602725  0.27209051    -0.03500
N155        N  0.30890450  0.08843945  0.28633014    -0.59600
Mn156      Mn  0.30047104  0.01865385  0.28563667     1.18400
C157        C  0.30485344  0.11171846  0.26661920     0.98700
C158        C  0.35648279  0.51062954  0.21105706     0.99400
N159        N  0.19176378  0.99485363  0.29069612    -0.05800
N160        N  0.17201827  0.99579034  0.31166220    -0.62100
N161        N  0.20877582  0.45027112  0.23503852    -0.04600
N162        N  0.19466467  0.42784416  0.22079081    -0.62800
N163        N  0.22069374  0.44141073  0.26219318    -0.05300
N164        N  0.21434701  0.41284506  0.26682475    -0.62300
N165        N  0.17948289  0.00352005  0.26362389    -0.04200
N166        N  0.15098661  0.01016282  0.26574169    -0.63000
Mn167      Mn  0.23636705  0.47429482  0.29742326     1.10700
C168        C  0.14700126  0.00563457  0.29592748     0.99900
C169        C  0.19874547  0.40456754  0.24050196     1.00000
N170        N  0.25262292  0.50672917  0.17648301    -0.05300
N171        N  0.26634176  0.49641239  0.15277946    -0.60700
N172        N  0.19761946  0.04571503  0.20711346    -0.04600
N173        N  0.17289122  0.05945036  0.19596516    -0.57400
N174        N  0.22126207  0.06234052  0.20247658    -0.05900
N175        N  0.21286742  0.08766507  0.18799537    -0.60200
N176        N  0.22879006  0.49045878  0.18097036    -0.04900
N177        N  0.22567809  0.46877707  0.16046884    -0.57400
Mn178      Mn  0.26716765  0.04202021  0.20968805     1.20200
Mn179      Mn  0.20309628  0.49763519  0.22147993     1.10100
Cl180      Cl  0.25177919  0.00815487  0.25355980    -0.85400
C181        C  0.24905335  0.47295857  0.14290671     0.97000
C182        C  0.18250555  0.08584602  0.18440754     0.96700
C183        C  0.40302023  0.16623369  0.25788952    -0.17900
C184        C  0.37775112  0.16019711  0.26328474     0.06100
C185        C  0.34840327  0.15021240  0.26681151     0.08000
C186        C  0.32557486  0.13613290  0.26764586    -0.18800
C187        C  0.17813479  0.38005557  0.23941882    -0.17900
C188        C  0.15539260  0.36582377  0.24019530     0.06100
C189        C  0.12608854  0.35566503  0.24365222     0.08000
C190        C  0.10081973  0.34956287  0.24899844    -0.18800
C191        C  0.27119629  0.38958654  0.06254512    -0.17900
C192        C  0.26750250  0.41030022  0.07965513     0.06100
C193        C  0.26197633  0.43367768  0.10043581     0.08000
C194        C  0.25647872  0.45248204  0.11910585    -0.18800
C195        C  0.24717370  0.06359619  0.38821464    -0.17900
C196        C  0.24162101  0.08231164  0.40695329     0.06100
C197        C  0.23598168  0.10561946  0.42776939     0.08000
C198        C  0.23219407  0.12632304  0.44485964    -0.18800
C199        C  0.13774663  0.23968544  0.30417751    -0.17900
C200        C  0.16277348  0.24108847  0.31576229     0.06100
C201        C  0.18691829  0.24479617  0.33764654     0.08000
C202        C  0.20094233  0.24881611  0.36176767    -0.18800
C203        C  0.30244361  0.26750176  0.14531047    -0.17900
C204        C  0.31663461  0.27150794  0.16934184     0.06100
C205        C  0.34092351  0.27513428  0.19107829     0.08000
C206        C  0.36598702  0.27645745  0.20258890    -0.18800
C207        C  0.36400617  0.16838703  0.49657060    -0.17900
C208        C  0.37572713  0.14435022  0.49456790     0.06100
C209        C  0.38450784  0.11410708  0.49385105     0.08000
C210        C  0.39201243  0.08834436  0.49217384    -0.18800
C211        C  0.11113122  0.42746200  0.01409488    -0.17900
C212        C  0.11850430  0.40167446  0.01242147     0.06100
C213        C  0.12716285  0.37141080  0.01186763     0.08000
C214        C  0.13891662  0.34738014  0.01009186    -0.18800
C215        C  0.11872588  0.00501809  0.30905966    -0.17900
C216        C  0.09843839  0.00131095  0.32530561     0.06100
C217        C  0.07932919  0.49612600  0.34903207     0.08000
C218        C  0.06601440  0.49362029  0.37192985    -0.18800
C219        C  0.43722577  0.02203516  0.13463848    -0.17900
C220        C  0.42393906  0.01960529  0.15756660     0.06100
C221        C  0.40490855  0.51459208  0.18140461     0.08000
C222        C  0.38470117  0.51106053  0.19779415    -0.18800
C223        C  0.02356106  0.31781539  0.11861528    -0.17900
C224        C  0.52252340  0.33160422  0.09482380     0.06700
C225        C  0.51673568  0.35300603  0.07151737     0.08000
C226        C  0.51044581  0.37587189  0.05802870    -0.18800
C227        C  0.48039337  0.19817771  0.38834961    -0.17900
C228        C  0.48127186  0.18435791  0.41211303     0.06100
C229        C  0.48676777  0.16284005  0.43534914     0.08000
C230        C  0.99284976  0.13987690  0.44873583    -0.18800
C231        C  0.14570204  0.12354625  0.15057720    -0.12700
C232        C  0.16290302  0.10716105  0.16632454    -0.14200
C233        C  0.08585998  0.17156092  0.16706004    -0.12700
C234        C  0.10349620  0.15904416  0.15089000    -0.14200
C235        C  0.14086545  0.16423425  0.11143314    -0.12700
C236        C  0.15550651  0.18096663  0.09541343    -0.14200
C237        C  0.08944807  0.10494637  0.09315773    -0.12700
C238        C  0.10498927  0.12198801  0.10969281    -0.14200
C239        C  0.41397606  0.41063721  0.41350668    -0.12700
C240        C  0.39839496  0.39361222  0.39700434    -0.14200
C241        C  0.34770551  0.33487679  0.41142403    -0.12700
C242        C  0.36236911  0.35151080  0.39530697    -0.14200
C243        C  0.35768289  0.39227668  0.35616177    -0.12700
C244        C  0.34056008  0.40883277  0.34050876    -0.14200
C245        C  0.41751563  0.34411628  0.33968104    -0.12700
C246        C  0.39979712  0.35658862  0.35580704    -0.14200
C247        C  0.37944085  0.37328549  0.87602566    -0.01900
C248        C  0.12386840  0.14239419  0.63067756    -0.01900
N249        N  0.04511691  0.51045383  0.94495110    -0.05500
N250        N  0.06674372  0.50573331  0.92651804    -0.57700
N251        N  0.49484506  0.06251454  0.95417511    -0.05200
N252        N  0.48033549  0.08706001  0.94542325    -0.59800
N253        N  0.02059344  0.06933505  0.96907320    -0.04800
N254        N  0.02409885  0.09872401  0.97061483    -0.57600
N255        N  0.01904435  0.50348590  0.93082229    -0.04500
N256        N  0.52247110  0.49417993  0.90257351    -0.60100
C257        C  0.05230298  0.49519813  0.90051875     0.96600
C258        C  0.99861528  0.10921570  0.95604898     0.96400
N259        N  0.42818670  0.01950438  0.99548988    -0.05700
N260        N  0.40853697  0.03730488  0.50742880    -0.58200
N261        N  0.45777869  0.47038758  0.94641360    -0.03800
N262        N  0.44775374  0.45524097  0.92157728    -0.59500
N263        N  0.44849830  0.45764089  0.97144490    -0.05800
N264        N  0.43214860  0.43349050  0.96399791    -0.58500
N265        N  0.43672875  0.03110976  0.96965655    -0.03500
N266        N  0.42296689  0.05659545  0.96322662    -0.59600
Mn267      Mn  0.47710136  0.01654960  0.94934596     1.18400
C268        C  0.40523264  0.05998501  0.98656948     0.98700
C269        C  0.43210741  0.43194740  0.93280952     0.99400
N270        N  0.05479636  0.05808067  0.53512984    -0.05800
N271        N  0.07121962  0.08217632  0.54261569    -0.62100
N272        N  0.06652086  0.48463556  0.53681478    -0.04600
N273        N  0.08028119  0.45914015  0.54317737    -0.62800
N274        N  0.07505790  0.49628927  0.01100261    -0.05300
N275        N  0.09469434  0.47852446  0.99900691    -0.62300
N276        N  0.04551583  0.04531035  0.56015018    -0.04200
N277        N  0.05561113  0.06038364  0.58501050    -0.63000
Mn278      Mn  0.04970801  0.03413985  0.98967034     1.10700
C279        C  0.07130339  0.08366185  0.57381436     0.99900
C280        C  0.09800288  0.45581172  0.51981460     1.00000
N281        N  0.48265207  0.44637880  0.53749532    -0.05300
N282        N  0.47914061  0.41698010  0.53603674    -0.60700
N283        N  0.48420748  0.01222298  0.57572702    -0.04600
N284        N  0.48078031  0.02148013  0.60399370    -0.57400
N285        N  0.45813016  0.00528466  0.56158715    -0.05900
N286        N  0.43650377  0.00997366  0.58002946    -0.60200
N287        N  0.50841305  0.45321756  0.55235730    -0.04900
N288        N  0.02292233  0.42869041  0.56116254    -0.57400
Mn289      Mn  0.45353941  0.48160924  0.51687074     1.20200
Mn290      Mn  0.02615841  0.49916880  0.55717591     1.10100
Cl291      Cl  0.50162513  0.00786939  0.00326836    -0.85400
C292        C  0.50463647  0.40651283  0.55061653     0.97000
C293        C  0.45094661  0.02045971  0.60604879     0.96700
N294        N  0.30293474  0.20798495  0.01808055    -0.05500
N295        N  0.31614487  0.18235583  0.01354120    -0.57700
N296        N  0.29611922  0.26432994  0.56552325    -0.05200
N297        N  0.30584749  0.27848682  0.59077893    -0.59800
N298        N  0.27939717  0.24118172  0.57254194    -0.04800
N299        N  0.27769757  0.23904396  0.60266935    -0.57600
N300        N  0.31991579  0.23073665  0.01045991    -0.04500
N301        N  0.34540339  0.22066227  0.00076933    -0.60100
C302        C  0.34229391  0.19045355  0.00277032     0.96600
C303        C  0.29391197  0.26272378  0.61351194     0.96400
N304        N  0.26392972  0.33247362  0.50789328    -0.05700
N305        N  0.25496796  0.35869110  0.51769077    -0.58200
N306        N  0.31217901  0.29283815  0.96906906    -0.03800
N307        N  0.33735171  0.30168182  0.95703453    -0.59500
N308        N  0.28896785  0.30253856  0.95157595    -0.05800
N309        N  0.29793179  0.31779821  0.92753635    -0.58500
N310        N  0.28670043  0.32246802  0.52566419    -0.03500
N311        N  0.29375362  0.34165685  0.54807871    -0.59600
Mn312      Mn  0.30490367  0.27742113  0.51775913     1.18400
C313        C  0.27390872  0.36419462  0.54258053     0.98700
C314        C  0.32818652  0.31682817  0.93071191     0.99400
N315        N  0.21426775  0.21357427  0.55556042    -0.05800
N316        N  0.20527239  0.19826835  0.57955261    -0.62100
N317        N  0.21663872  0.19355147  0.98149385    -0.04600
N318        N  0.20961064  0.17430060  0.95913071    -0.62800
N319        N  0.23935224  0.18356178  0.99935770    -0.05300
N320        N  0.24830666  0.15730179  0.98967087    -0.62300
N321        N  0.19107439  0.22319287  0.53798763    -0.04200
N322        N  0.16588695  0.21425789  0.54992301    -0.63000
Mn323      Mn  0.25926899  0.21138079  0.53705148     1.10700
C324        C  0.17502065  0.19913686  0.57626343     0.99900
C325        C  0.22941757  0.15174927  0.96475688     1.00000
N326        N  0.22385841  0.27497747  0.93462728    -0.05300
N327        N  0.22554295  0.27722467  0.90450884    -0.60700
N328        N  0.18333055  0.28521655  0.49663124    -0.04600
N329        N  0.15774298  0.29520419  0.50614495    -0.57400
N330        N  0.20030931  0.30801512  0.48913545    -0.05900
N331        N  0.18699177  0.33360103  0.49359076    -0.60200
N332        N  0.20718285  0.25177065  0.94157813    -0.04900
N333        N  0.19745462  0.23769089  0.91627420    -0.57400
Mn334      Mn  0.24398419  0.30471053  0.97016201     1.20200
Mn335      Mn  0.19839527  0.23859207  0.98932294     1.10100
Cl336      Cl  0.25163776  0.25802302  0.50356761    -0.85400
C337        C  0.20935738  0.25356124  0.89359265     0.97000
C338        C  0.16079019  0.32541290  0.50418416     0.96700
N339        N  0.44216172  0.26195240  0.70624027    -0.05500
N340        N  0.41456343  0.25292612  0.69890115    -0.57700
N341        N  0.50226433  0.30167180  0.69191278    -0.05200
N342        N  0.01199014  0.32167596  0.67242016    -0.59800
N343        N  0.50268005  0.27473891  0.67973268    -0.04800
N344        N  0.01251613  0.27582713  0.65190906    -0.57600
N345        N  0.44198147  0.28853804  0.71924744    -0.04500
N346        N  0.41433711  0.29813730  0.72098084    -0.60100
C347        C  0.39766664  0.27551727  0.70846556     0.96600
C348        C  0.01869364  0.30507853  0.64796373     0.96400
N349        N  0.03974333  0.31708000  0.78076276    -0.05700
N350        N  0.06818603  0.32481213  0.78362587    -0.58200
N351        N  0.46426351  0.31733610  0.78282273    -0.03800
N352        N  0.44022734  0.33262112  0.78971977    -0.59500
N353        N  0.47776629  0.30589131  0.80803879    -0.05800
N354        N  0.46324444  0.31321091  0.83250622    -0.58500
N355        N  0.02682198  0.32795881  0.75501565    -0.03500
N356        N  0.04643113  0.34319274  0.73969928    -0.59600
Mn357      Mn  0.48339473  0.31006945  0.73693393     1.18400
C358        C  0.07188126  0.34133657  0.75817871     0.98700
C359        C  0.43971149  0.32985655  0.82085526     0.99400
N360        N  0.02589231  0.21007146  0.69882363    -0.05800
N361        N  0.04030186  0.20264276  0.67432033    -0.62100
N362        N  0.47694723  0.18801745  0.75186905    -0.04600
N363        N  0.45738962  0.17268850  0.76715809    -0.62800
N364        N  0.46399127  0.19891188  0.72614379    -0.05300
N365        N  0.43557205  0.19109851  0.72326986    -0.62300
N366        N  0.03942438  0.19863072  0.72402589    -0.04200
N367        N  0.06337220  0.18323312  0.71708204    -0.63000
Mn368      Mn  0.48361812  0.23604720  0.70168441     1.10700
C369        C  0.06379773  0.18593569  0.68593458     0.99900
C370        C  0.43193341  0.17450317  0.74868455     1.00000
N371        N  0.00109667  0.24125518  0.82715496    -0.05300
N372        N  0.49135634  0.24016050  0.85501815    -0.60700
N373        N  0.06176677  0.22749567  0.78758952    -0.04600
N374        N  0.08942031  0.21793831  0.78581464    -0.57400
N375        N  0.06156338  0.25407055  0.80061987    -0.05900
N376        N  0.08915381  0.26313108  0.80793086    -0.60200
N377        N  0.00154826  0.21431719  0.81498947    -0.04900
N378        N  0.49193844  0.19429940  0.83453425    -0.57400
Mn379      Mn  0.02009393  0.27995194  0.80519558     1.20200
Mn380      Mn  0.02036442  0.20592641  0.76993649     1.10100
Cl381      Cl  0.50186460  0.25799379  0.75343874    -0.85400
C382        C  0.48527288  0.21089795  0.85900299     0.97000
C383        C  0.10606877  0.24057650  0.79832337     0.96700
N384        N  0.28226426  0.45393805  0.80461394    -0.05500
N385        N  0.29062389  0.42855539  0.81900210    -0.57700
N386        N  0.27477961  0.02581416  0.82617390    -0.05200
N387        N  0.27792910  0.04743430  0.84674500    -0.59800
N388        N  0.25093726  0.00954979  0.83063967    -0.04800
N389        N  0.23725505  0.01979886  0.85439472    -0.57600
N390        N  0.30593130  0.47053525  0.79999017    -0.04500
N391        N  0.33064498  0.45671798  0.81106987    -0.60100
C392        C  0.32099004  0.43030126  0.82256348     0.96600
C393        C  0.25456797  0.04321113  0.86432283     0.96400
N394        N  0.28283884  0.07490033  0.74493924    -0.05700
N395        N  0.28922612  0.10345668  0.74030477    -0.58200
N396        N  0.32407725  0.51280815  0.74344769    -0.03800
N397        N  0.35255471  0.50610974  0.74126188    -0.59500
N398        N  0.31176501  0.52149316  0.71639448    -0.05800
N399        N  0.33145602  0.52051286  0.69537877    -0.58500
N400        N  0.29476220  0.06602724  0.77209048    -0.03500
N401        N  0.30890449  0.08843944  0.78633012    -0.59600
Mn402      Mn  0.30047103  0.01865385  0.78563664     1.18400
C403        C  0.30485344  0.11171846  0.76661919     0.98700
C404        C  0.35648275  0.51062952  0.71105703     0.99400
N405        N  0.19176378  0.99485363  0.79069612    -0.05800
N406        N  0.17201828  0.99579034  0.81166219    -0.62100
N407        N  0.20877583  0.45027111  0.73503853    -0.04600
N408        N  0.19466468  0.42784414  0.72079082    -0.62800
N409        N  0.22069374  0.44141073  0.76219320    -0.05300
N410        N  0.21434701  0.41284506  0.76682478    -0.62300
N411        N  0.17948289  0.00352005  0.76362388    -0.04200
N412        N  0.15098661  0.01016281  0.76574168    -0.63000
Mn413      Mn  0.23636706  0.47429483  0.79742328     1.10700
C414        C  0.14700126  0.00563456  0.79592748     0.99900
C415        C  0.19874547  0.40456753  0.74050199     1.00000
N416        N  0.25262291  0.50672918  0.67648299    -0.05300
N417        N  0.26634175  0.49641239  0.65277944    -0.60700
N418        N  0.19761946  0.04571504  0.70711344    -0.04600
N419        N  0.17289121  0.05945038  0.69596515    -0.57400
N420        N  0.22126206  0.06234052  0.70247655    -0.05900
N421        N  0.21286742  0.08766507  0.68799535    -0.60200
N422        N  0.22879006  0.49045877  0.68097036    -0.04900
N423        N  0.22567809  0.46877705  0.66046884    -0.57400
Mn424      Mn  0.26716764  0.04202021  0.70968802     1.20200
Mn425      Mn  0.20309629  0.49763517  0.72147993     1.10100
Cl426      Cl  0.25177918  0.00815487  0.75355978    -0.85400
C427        C  0.24905335  0.47295856  0.64290671     0.97000
C428        C  0.18250554  0.08584604  0.68440754     0.96700
C429        C  0.40302024  0.16623368  0.75788948    -0.17900
C430        C  0.37775113  0.16019709  0.76328471     0.06100
C431        C  0.34840328  0.15021239  0.76681150     0.08000
C432        C  0.32557487  0.13613289  0.76764586    -0.18800
C433        C  0.17813479  0.38005556  0.73941886    -0.17900
C434        C  0.15539260  0.36582376  0.74019534     0.06100
C435        C  0.12608853  0.35566502  0.74365223     0.08000
C436        C  0.10081972  0.34956287  0.74899844    -0.18800
C437        C  0.27119628  0.38958656  0.56254507    -0.17900
C438        C  0.26750248  0.41030023  0.57965509     0.06100
C439        C  0.26197632  0.43367768  0.60043578     0.08000
C440        C  0.25647872  0.45248203  0.61910584    -0.18800
C441        C  0.24717371  0.06359618  0.88821465    -0.17900
C442        C  0.24162102  0.08231163  0.90695331     0.06100
C443        C  0.23598169  0.10561944  0.92776942     0.08000
C444        C  0.23219406  0.12632303  0.94485966    -0.18800
C445        C  0.13774662  0.23968544  0.80417749    -0.17900
C446        C  0.16277346  0.24108848  0.81576228     0.06100
C447        C  0.18691825  0.24479618  0.83764655     0.08000
C448        C  0.20094228  0.24881612  0.86176769    -0.18800
C449        C  0.30244360  0.26750175  0.64531047    -0.17900
C450        C  0.31663460  0.27150793  0.66934182     0.06100
C451        C  0.34092351  0.27513427  0.69107827     0.08000
C452        C  0.36598702  0.27645744  0.70258885    -0.18800
C453        C  0.36400616  0.16838703  0.99657059    -0.17900
C454        C  0.37572714  0.14435022  0.99456793     0.06100
C455        C  0.38450785  0.11410708  0.99385110     0.08000
C456        C  0.39201245  0.08834436  0.99217389    -0.18800
C457        C  0.11113123  0.42746202  0.51409483    -0.17900
C458        C  0.11850430  0.40167447  0.51242140     0.06100
C459        C  0.12716283  0.37141081  0.51186755     0.08000
C460        C  0.13891661  0.34738014  0.51009180    -0.18800
C461        C  0.11872589  0.00501810  0.80905968    -0.17900
C462        C  0.09843841  0.00131095  0.82530564     0.06100
C463        C  0.07932923  0.49612599  0.84903208     0.08000
C464        C  0.06601442  0.49362027  0.87192987    -0.18800
C465        C  0.43722580  0.02203510  0.63463851    -0.17900
C466        C  0.42393908  0.01960524  0.65756662     0.06100
C467        C  0.40490851  0.51459208  0.68140457     0.08000
C468        C  0.38470113  0.51106051  0.69779411    -0.18800
C469        C  0.02356105  0.31781544  0.61861526    -0.17900
C470        C  0.52252339  0.33160425  0.59482376     0.06700
C471        C  0.51673568  0.35300602  0.57151728     0.08000
C472        C  0.51044582  0.37587187  0.55802859    -0.18800
C473        C  0.48039338  0.19817771  0.88834961    -0.17900
C474        C  0.48127187  0.18435792  0.91211304     0.06100
C475        C  0.48676779  0.16284006  0.93534915     0.08000
C476        C  0.99284973  0.13987692  0.94873585    -0.18800
C477        C  0.14570204  0.12354626  0.65057721    -0.12700
C478        C  0.16290301  0.10716107  0.66632454    -0.14200
C479        C  0.08585998  0.17156093  0.66706004    -0.12700
C480        C  0.10349620  0.15904417  0.65088998    -0.14200
C481        C  0.14086544  0.16423424  0.61143312    -0.12700
C482        C  0.15550648  0.18096661  0.59541339    -0.14200
C483        C  0.08944808  0.10494635  0.59315774    -0.12700
C484        C  0.10498927  0.12198799  0.60969282    -0.14200
C485        C  0.41397607  0.41063720  0.91350666    -0.12700
C486        C  0.39839497  0.39361220  0.89700432    -0.14200
C487        C  0.34770551  0.33487677  0.91142402    -0.12700
C488        C  0.36236912  0.35151078  0.89530696    -0.14200
C489        C  0.35768288  0.39227667  0.85616177    -0.12700
C490        C  0.34056007  0.40883278  0.84050879    -0.14200
C491        C  0.41751562  0.34411627  0.83968101    -0.12700
C492        C  0.39979711  0.35658861  0.85580701    -0.14200
C493        C  0.37944149  0.87328540  0.37602583    -0.01900
C494        C  0.12386809  0.64239402  0.13067718    -0.01900
N495        N  0.04511827  0.01045346  0.44495126    -0.05500
N496        N  0.06674510  0.00573255  0.42651832    -0.57700
N497        N  0.49484376  0.56251478  0.45417532    -0.05200
N498        N  0.48033421  0.58706028  0.44542353    -0.59800
N499        N  0.02059215  0.56933522  0.46907342    -0.04800
N500        N  0.02409759  0.59872418  0.47061510    -0.57600
N501        N  0.01904571  0.00348545  0.43082249    -0.04500
N502        N  0.52247247  0.99417901  0.40257388    -0.60100
C503        C  0.05230436  0.99519703  0.40051917     0.96600
C504        C  0.99861403  0.60921593  0.45604930     0.96400
N505        N  0.42818537  0.51950462  0.49548988    -0.05700
N506        N  0.40853542  0.53730499  0.00742857    -0.58200
N507        N  0.45777993  0.97038731  0.44641361    -0.03800
N508        N  0.44775481  0.95524077  0.42157729    -0.59500
N509        N  0.44849961  0.95764060  0.47144493    -0.05800
N510        N  0.43214979  0.93349028  0.46399797    -0.58500
N511        N  0.43672744  0.53110991  0.46965653    -0.03500
N512        N  0.42296539  0.55659545  0.46322635    -0.59600
Mn513      Mn  0.47710006  0.51654985  0.44934599     1.18400
C514        C  0.40523100  0.55998499  0.48656909     0.98700
C515        C  0.43210844  0.93194722  0.43280955     0.99400
N516        N  0.05479533  0.55808052  0.03512986    -0.05800
N517        N  0.07121873  0.58217607  0.04261570    -0.62100
N518        N  0.06652223  0.98463589  0.03681514    -0.04600
N519        N  0.08028264  0.95914055  0.04317791    -0.62800
N520        N  0.07505929  0.99628946  0.51100291    -0.05300
N521        N  0.09469579  0.97852464  0.49900734    -0.62300
N522        N  0.04551494  0.54531012  0.06015022    -0.04200
N523        N  0.05561047  0.56038329  0.08501055    -0.63000
Mn524      Mn  0.04970673  0.53413988  0.48967032     1.10700
C525        C  0.07130274  0.58366150  0.07381438     0.99900
C526        C  0.09800437  0.95581204  0.01981518     1.00000
N527        N  0.48265367  0.94637866  0.03749535    -0.05300
N528        N  0.47914246  0.91697993  0.03603684    -0.60700
N529        N  0.48420640  0.51222314  0.07572695    -0.04600
N530        N  0.48077937  0.52148069  0.10399351    -0.57400
N531        N  0.45812898  0.50528500  0.06158716    -0.05900
N532        N  0.43650267  0.50997451  0.08002945    -0.60200
N533        N  0.50841456  0.95321763  0.05235743    -0.04900
N534        N  0.02292400  0.92869063  0.06116276    -0.57400
Mn535      Mn  0.45354080  0.98160897  0.01687070     1.20200
Mn536      Mn  0.02615959  0.99916897  0.05717600     1.10100
Cl537      Cl  0.50162384  0.50786948  0.50326834    -0.85400
C538        C  0.50463836  0.90651287  0.05061675     0.97000
C539        C  0.45094568  0.52046069  0.10604865     0.96700
N540        N  0.30293486  0.70798535  0.51808116    -0.05500
N541        N  0.31614485  0.68235623  0.51354161    -0.57700
N542        N  0.29611913  0.76433079  0.06552328    -0.05200
N543        N  0.30584740  0.77848789  0.09077881    -0.59800
N544        N  0.27939712  0.74118260  0.07254221    -0.04800
N545        N  0.27769756  0.73904510  0.10266963    -0.57600
N546        N  0.31991581  0.73073704  0.51046024    -0.04500
N547        N  0.34540321  0.72066262  0.50076922    -0.60100
C548        C  0.34229372  0.69045392  0.50277031     0.96600
C549        C  0.29391193  0.76272504  0.11351199     0.96400
N550        N  0.26392963  0.83247382  0.00789244    -0.05700
N551        N  0.25496783  0.85869143  0.01768956    -0.58200
N552        N  0.31217920  0.79283810  0.46906890    -0.03800
N553        N  0.33735195  0.80168187  0.45703456    -0.59500
N554        N  0.28896810  0.80253828  0.45157557    -0.05800
N555        N  0.29793216  0.81779791  0.42753600    -0.58500
N556        N  0.28670030  0.82246844  0.02566354    -0.03500
N557        N  0.29375345  0.84165754  0.04807782    -0.59600
Mn558      Mn  0.30490366  0.77742152  0.01775906     1.18400
C559        C  0.27390855  0.86419525  0.04257929     0.98700
C560        C  0.32818688  0.81682807  0.43071181     0.99400
N561        N  0.21426775  0.71357470  0.05556084    -0.05800
N562        N  0.20527227  0.69826870  0.07955293    -0.62100
N563        N  0.21663904  0.69355124  0.48149457    -0.04600
N564        N  0.20961105  0.67430014  0.45913162    -0.62800
N565        N  0.23935253  0.68356177  0.49935858    -0.05300
N566        N  0.24830704  0.65730169  0.48967206    -0.62300
N567        N  0.19107442  0.72319311  0.03798784    -0.04200
N568        N  0.16588695  0.71425792  0.04992298    -0.63000
Mn569      Mn  0.25926909  0.71138124  0.03705206     1.10700
C570        C  0.17502053  0.69913696  0.07626348     0.99900
C571        C  0.22941800  0.65174889  0.46475809     1.00000
N572        N  0.22385878  0.77497666  0.43462703    -0.05300
N573        N  0.22554341  0.77722344  0.40450858    -0.60700
N574        N  0.18333066  0.78521641  0.99663077    -0.04600
N575        N  0.15774315  0.79520410  0.00614456    -0.57400
N576        N  0.20030933  0.80801492  0.98913466    -0.05900
N577        N  0.18699178  0.83360086  0.99358980    -0.60200
N578        N  0.20718325  0.75176988  0.44157813    -0.04900
N579        N  0.19745518  0.73768977  0.41627439    -0.57400
Mn580      Mn  0.24398431  0.80471025  0.47016142     1.20200
Mn581      Mn  0.19839549  0.73859186  0.48932304     1.10100
Cl582      Cl  0.25163786  0.75802313  0.00356765    -0.85400
C583        C  0.20935798  0.75355982  0.39359265     0.97000
C584        C  0.16079028  0.82541279  0.00418343     0.96700
N585        N  0.44216216  0.76195296  0.20624001    -0.05500
N586        N  0.41456380  0.75292692  0.19890073    -0.57700
N587        N  0.50226517  0.80167195  0.19191291    -0.05200
N588        N  0.01199149  0.82167606  0.17242052    -0.59800
N589        N  0.50268070  0.77473911  0.17973269    -0.04800
N590        N  0.01251713  0.77582730  0.15190922    -0.57600
N591        N  0.44198207  0.78853855  0.21924726    -0.04500
N592        N  0.41433778  0.79813804  0.22098058    -0.60100
C593        C  0.39766718  0.77551818  0.20846514     0.96600
C594        C  0.01869505  0.80507865  0.14796410     0.96400
N595        N  0.03974398  0.81707971  0.28076300    -0.05700
N596        N  0.06818670  0.82481173  0.28362622    -0.58200
N597        N  0.46426410  0.81733612  0.28282278    -0.03800
N598        N  0.44022793  0.83262113  0.28971983    -0.59500
N599        N  0.47776678  0.80589118  0.30803881    -0.05800
N600        N  0.46324486  0.81321065  0.33250624    -0.58500
N601        N  0.02682272  0.82795867  0.25501592    -0.03500
N602        N  0.04643196  0.84319260  0.23969967    -0.59600
Mn603      Mn  0.48339543  0.81006959  0.23693399     1.18400
C604        C  0.07188205  0.84133627  0.25817915     0.98700
C605        C  0.43971199  0.82985639  0.32085530     0.99400
N606        N  0.02589236  0.71007147  0.19882343    -0.05800
N607        N  0.04030187  0.70264278  0.17432011    -0.62100
N608        N  0.47694707  0.68801765  0.25186871    -0.04600
N609        N  0.45738934  0.67268885  0.26715771    -0.62800
N610        N  0.46399119  0.69891226  0.22614347    -0.05300
N611        N  0.43557190  0.69109916  0.22326955    -0.62300
N612        N  0.03942435  0.69863059  0.22402565    -0.04200
N613        N  0.06337209  0.68323286  0.21708175    -0.63000
Mn614      Mn  0.48361836  0.73604748  0.20168421     1.10700
C615        C  0.06379762  0.68593554  0.18593430     0.99900
C616        C  0.43193312  0.67450380  0.24868420     1.00000
N617        N  0.00109682  0.74125494  0.32715480    -0.05300
N618        N  0.49135636  0.74016026  0.35501794    -0.60700
N619        N  0.06176691  0.72749520  0.28758942    -0.04600
N620        N  0.08942038  0.71793765  0.28581462    -0.57400
N621        N  0.06156366  0.75407004  0.30061988    -0.05900
N622        N  0.08915415  0.76313034  0.30793102    -0.60200
N623        N  0.00154826  0.71431698  0.31498922    -0.04900
N624        N  0.49193819  0.69429920  0.33453388    -0.57400
Mn625      Mn  0.02009433  0.77995165  0.30519561     1.20200
Mn626      Mn  0.02036442  0.70592624  0.26993625     1.10100
Cl627      Cl  0.50186494  0.75799377  0.25343865    -0.85400
C628        C  0.48527267  0.71089774  0.35900265     0.97000
C629        C  0.10606897  0.74057567  0.29832351     0.96700
N630        N  0.28226479  0.95393753  0.30461370    -0.05500
N631        N  0.29062448  0.92855493  0.31900192    -0.57700
N632        N  0.27477932  0.52581467  0.32617416    -0.05200
N633        N  0.27792903  0.54743469  0.34674539    -0.59800
N634        N  0.25093699  0.50955034  0.33063999    -0.04800
N635        N  0.23725496  0.51979929  0.35439522    -0.57600
N636        N  0.30593179  0.97053481  0.29998998    -0.04500
N637        N  0.33064549  0.95671764  0.31106978    -0.60100
C638        C  0.32099061  0.93030091  0.32256340     0.96600
C639        C  0.25456800  0.54321145  0.36432335     0.96400
N640        N  0.28283853  0.57490078  0.24493937    -0.05700
N641        N  0.28922585  0.60345710  0.24030477    -0.58200
N642        N  0.32407759  0.01280764  0.24344749    -0.03800
N643        N  0.35255494  0.00610875  0.24126160    -0.59500
N644        N  0.31176540  0.02149270  0.21639427    -0.05800
N645        N  0.33145630  0.02051197  0.19537849    -0.58500
N646        N  0.29476193  0.56602777  0.27209063    -0.03500
N647        N  0.30890431  0.58843999  0.28633014    -0.59600
Mn648      Mn  0.30047068  0.51865435  0.28563687     1.18400
C649        C  0.30485325  0.61171895  0.26661912     0.98700
C650        C  0.35648294  0.01062831  0.21105670     0.99400
N651        N  0.19176334  0.49485452  0.29069660    -0.05800
N652        N  0.17201791  0.49579159  0.31166273    -0.62100
N653        N  0.20877656  0.95027045  0.23503802    -0.04600
N654        N  0.19466545  0.92784344  0.22079033    -0.62800
N655        N  0.22069449  0.94141010  0.26219270    -0.05300
N656        N  0.21434784  0.91284442  0.26682428    -0.62300
N657        N  0.17948250  0.50352098  0.26362435    -0.04200
N658        N  0.15098632  0.51016414  0.26574220    -0.63000
Mn659      Mn  0.23636755  0.97429419  0.29742288     1.10700
C660        C  0.14700098  0.50563608  0.29592802     0.99900
C661        C  0.19874631  0.90456684  0.24050151     1.00000
N662        N  0.25262338  0.00672895  0.17648260    -0.05300
N663        N  0.26634209  0.99641251  0.15277882    -0.60700
N664        N  0.19761912  0.54571557  0.20711379    -0.04600
N665        N  0.17289089  0.55945089  0.19596544    -0.57400
N666        N  0.22126174  0.56234096  0.20247677    -0.05900
N667        N  0.21286714  0.58766544  0.18799542    -0.60200
N668        N  0.22879059  0.99045843  0.18096990    -0.04900
N669        N  0.22567854  0.96877697  0.16046811    -0.57400
Mn670      Mn  0.26716727  0.54202059  0.20968827     1.20200
Mn671      Mn  0.20309679  0.99763456  0.22147949     1.10100
Cl672      Cl  0.25177877  0.50815540  0.25356011    -0.85400
C673        C  0.24905369  0.97295876  0.14290589     0.97000
C674        C  0.18250527  0.58584644  0.18440765     0.96700
C675        C  0.40301990  0.66623444  0.25788908    -0.17900
C676        C  0.37775080  0.66019782  0.26328432     0.06100
C677        C  0.34840301  0.65021299  0.26681119     0.08000
C678        C  0.32557466  0.63613339  0.26764564    -0.18800
C679        C  0.17813558  0.88005491  0.23941852    -0.17900
C680        C  0.15539337  0.86582319  0.24019529     0.06100
C681        C  0.12608933  0.85566454  0.24365254     0.08000
C682        C  0.10082055  0.84956247  0.24899893    -0.18800
C683        C  0.27119608  0.88958739  0.06254352    -0.17900
C684        C  0.26750236  0.91030110  0.07965350     0.06100
C685        C  0.26197636  0.93367844  0.10043434     0.08000
C686        C  0.25647890  0.95248260  0.11910466    -0.18800
C687        C  0.24717402  0.56359625  0.38821546    -0.17900
C688        C  0.24162148  0.58231147  0.40695439     0.06100
C689        C  0.23598227  0.60561907  0.42777074     0.08000
C690        C  0.23219466  0.62632258  0.44486106    -0.18800
C691        C  0.13774681  0.73968431  0.30417778    -0.17900
C692        C  0.16277367  0.74108703  0.31576256     0.06100
C693        C  0.18691861  0.74479447  0.33764672     0.08000
C694        C  0.20094279  0.74881442  0.36176777    -0.18800
C695        C  0.30244373  0.76750319  0.14531043    -0.17900
C696        C  0.31663493  0.77150939  0.16934167     0.06100
C697        C  0.34092401  0.77513561  0.19107793     0.08000
C698        C  0.36598757  0.77645860  0.20258841    -0.18800
C699        C  0.36400569  0.66838736  0.49657000    -0.17900
C700        C  0.37572629  0.64435040  0.49456712     0.06100
C701        C  0.38450648  0.61410714  0.49385035     0.08000
C702        C  0.39201079  0.58834433  0.49217331    -0.18800
C703        C  0.11113250  0.92746223  0.01409542    -0.17900
C704        C  0.11850525  0.90167461  0.01242178     0.06100
C705        C  0.12716338  0.87141085  0.01186755     0.08000
C706        C  0.13891688  0.84738009  0.01009144    -0.18800
C707        C  0.11872558  0.50501995  0.30906019    -0.17900
C708        C  0.09843783  0.50131295  0.32530583     0.06100
C709        C  0.07933025  0.99612409  0.34903228     0.08000
C710        C  0.06601578  0.99361867  0.37193031    -0.18800
C711        C  0.43722498  0.52203671  0.13463838    -0.17900
C712        C  0.42393853  0.51960722  0.15756670     0.06100
C713        C  0.40490878  0.01459005  0.18140424     0.08000
C714        C  0.38470128  0.01105873  0.19779368    -0.18800
C715        C  0.02356295  0.81781560  0.11861577    -0.17900
C716        C  0.52252555  0.83160447  0.09482431     0.06700
C717        C  0.51673792  0.85300622  0.07151779     0.08000
C718        C  0.51044792  0.87587199  0.05802898    -0.18800
C719        C  0.48039291  0.69817749  0.38834919    -0.17900
C720        C  0.48127117  0.68435783  0.41211270     0.06100
C721        C  0.48676684  0.66284018  0.43534905     0.08000
C722        C  0.99284863  0.63987713  0.44873599    -0.18800
C723        C  0.14570176  0.62354626  0.15057691    -0.12700
C724        C  0.16290277  0.60716129  0.16632442    -0.14200
C725        C  0.08585979  0.67156077  0.16705971    -0.12700
C726        C  0.10349593  0.65904402  0.15088959    -0.14200
C727        C  0.14086513  0.66423406  0.11143273    -0.12700
C728        C  0.15550629  0.68096652  0.09541319    -0.14200
C729        C  0.08944761  0.60494596  0.09315768    -0.12700
C730        C  0.10498892  0.62198769  0.10969258    -0.14200
C731        C  0.41397693  0.91063709  0.41350673    -0.12700
C732        C  0.39839569  0.89361212  0.39700445    -0.14200
C733        C  0.34770596  0.83487673  0.41142407    -0.12700
C734        C  0.36236969  0.85151073  0.39530711    -0.14200
C735        C  0.35768353  0.89227655  0.35616190    -0.12700
C736        C  0.34056068  0.90883254  0.34050883    -0.14200
C737        C  0.41751614  0.84411611  0.33968109    -0.12700
C738        C  0.39979769  0.85658846  0.35580715    -0.14200
C739        C  0.37944149  0.87328541  0.87602582    -0.01900
C740        C  0.12386809  0.64239402  0.63067719    -0.01900
N741        N  0.04511827  0.01045347  0.94495127    -0.05500
N742        N  0.06674511  0.00573253  0.92651833    -0.57700
N743        N  0.49484375  0.56251479  0.95417531    -0.05200
N744        N  0.48033420  0.58706030  0.94542354    -0.59800
N745        N  0.02059215  0.56933523  0.96907343    -0.04800
N746        N  0.02409759  0.59872419  0.97061514    -0.57600
N747        N  0.01904571  0.00348546  0.93082248    -0.04500
N748        N  0.52247248  0.99417901  0.90257388    -0.60100
C749        C  0.05230437  0.99519701  0.90051919     0.96600
C750        C  0.99861402  0.60921595  0.95604936     0.96400
N751        N  0.42818535  0.51950460  0.99548984    -0.05700
N752        N  0.40853544  0.53730502  0.50742860    -0.58200
N753        N  0.45777994  0.97038732  0.94641359    -0.03800
N754        N  0.44775481  0.95524079  0.92157727    -0.59500
N755        N  0.44849963  0.95764061  0.97144491    -0.05800
N756        N  0.43214982  0.93349029  0.96399794    -0.58500
N757        N  0.43672743  0.53110991  0.96965650    -0.03500
N758        N  0.42296537  0.55659545  0.96322634    -0.59600
Mn759      Mn  0.47710006  0.51654986  0.94934597     1.18400
C760        C  0.40523099  0.55998498  0.98656908     0.98700
C761        C  0.43210846  0.93194724  0.93280953     0.99400
N762        N  0.05479532  0.55808051  0.53512989    -0.05800
N763        N  0.07121872  0.58217607  0.54261573    -0.62100
N764        N  0.06652223  0.98463587  0.53681513    -0.04600
N765        N  0.08028263  0.95914053  0.54317789    -0.62800
N766        N  0.07505929  0.99628949  0.01100292    -0.05300
N767        N  0.09469580  0.97852466  0.99900735    -0.62300
N768        N  0.04551495  0.54531011  0.56015024    -0.04200
N769        N  0.05561048  0.56038326  0.58501058    -0.63000
Mn770      Mn  0.04970673  0.53413988  0.98967031     1.10700
C771        C  0.07130274  0.58366148  0.57381442     0.99900
C772        C  0.09800435  0.95581200  0.51981517     1.00000
N773        N  0.48265367  0.94637866  0.53749535    -0.05300
N774        N  0.47914245  0.91697993  0.53603682    -0.60700
N775        N  0.48420641  0.51222312  0.57572697    -0.04600
N776        N  0.48077938  0.52148069  0.60399354    -0.57400
N777        N  0.45812899  0.50528500  0.56158719    -0.05900
N778        N  0.43650268  0.50997453  0.58002946    -0.60200
N779        N  0.50841456  0.95321762  0.55235742    -0.04900
N780        N  0.02292400  0.92869062  0.56116274    -0.57400
Mn781      Mn  0.45354079  0.98160897  0.51687071     1.20200
Mn782      Mn  0.02615960  0.99916897  0.55717600     1.10100
Cl783      Cl  0.50162383  0.50786949  0.00326833    -0.85400
C784        C  0.50463835  0.90651287  0.55061673     0.97000
C785        C  0.45094569  0.52046071  0.60604866     0.96700
N786        N  0.30293485  0.70798535  0.01808117    -0.05500
N787        N  0.31614484  0.68235623  0.01354163    -0.57700
N788        N  0.29611915  0.76433078  0.56552327    -0.05200
N789        N  0.30584742  0.77848789  0.59077879    -0.59800
N790        N  0.27939714  0.74118260  0.57254219    -0.04800
N791        N  0.27769758  0.73904511  0.60266963    -0.57600
N792        N  0.31991581  0.73073704  0.01046025    -0.04500
N793        N  0.34540322  0.72066261  0.00076925    -0.60100
C794        C  0.34229372  0.69045391  0.00277034     0.96600
C795        C  0.29391194  0.76272505  0.61351197     0.96400
N796        N  0.26392963  0.83247380  0.50789245    -0.05700
N797        N  0.25496783  0.85869142  0.51768958    -0.58200
N798        N  0.31217920  0.79283810  0.96906891    -0.03800
N799        N  0.33735195  0.80168188  0.95703457    -0.59500
N800        N  0.28896810  0.80253829  0.95157557    -0.05800
N801        N  0.29793216  0.81779791  0.92753600    -0.58500
N802        N  0.28670031  0.82246843  0.52566354    -0.03500
N803        N  0.29375347  0.84165753  0.54807781    -0.59600
Mn804      Mn  0.30490367  0.77742152  0.51775905     1.18400
C805        C  0.27390856  0.86419524  0.54257929     0.98700
C806        C  0.32818689  0.81682807  0.93071182     0.99400
N807        N  0.21426775  0.71357470  0.55556085    -0.05800
N808        N  0.20527228  0.69826871  0.57955295    -0.62100
N809        N  0.21663903  0.69355125  0.98149455    -0.04600
N810        N  0.20961104  0.67430016  0.95913160    -0.62800
N811        N  0.23935252  0.68356178  0.99935856    -0.05300
N812        N  0.24830702  0.65730170  0.98967204    -0.62300
N813        N  0.19107443  0.72319311  0.53798784    -0.04200
N814        N  0.16588695  0.71425792  0.54992299    -0.63000
Mn815      Mn  0.25926910  0.71138124  0.53705206     1.10700
C816        C  0.17502053  0.69913697  0.57626349     0.99900
C817        C  0.22941799  0.65174891  0.96475807     1.00000
N818        N  0.22385877  0.77497668  0.93462702    -0.05300
N819        N  0.22554342  0.77722346  0.90450856    -0.60700
N820        N  0.18333065  0.78521639  0.49663077    -0.04600
N821        N  0.15774314  0.79520407  0.50614454    -0.57400
N822        N  0.20030934  0.80801491  0.48913466    -0.05900
N823        N  0.18699178  0.83360084  0.49358980    -0.60200
N824        N  0.20718324  0.75176991  0.94157812    -0.04900
N825        N  0.19745516  0.73768979  0.91627437    -0.57400
Mn826      Mn  0.24398431  0.80471026  0.97016141     1.20200
Mn827      Mn  0.19839548  0.73859188  0.98932303     1.10100
Cl828      Cl  0.25163786  0.75802312  0.50356765    -0.85400
C829        C  0.20935797  0.75355984  0.89359264     0.97000
C830        C  0.16079027  0.82541277  0.50418341     0.96700
N831        N  0.44216215  0.76195299  0.70623997    -0.05500
N832        N  0.41456379  0.75292695  0.69890069    -0.57700
N833        N  0.50226518  0.80167197  0.69191288    -0.05200
N834        N  0.01199149  0.82167608  0.67242049    -0.59800
N835        N  0.50268070  0.77473913  0.67973267    -0.04800
N836        N  0.01251713  0.77582731  0.65190918    -0.57600
N837        N  0.44198207  0.78853858  0.71924722    -0.04500
N838        N  0.41433777  0.79813807  0.72098054    -0.60100
C839        C  0.39766717  0.77551822  0.70846510     0.96600
C840        C  0.01869505  0.80507866  0.64796407     0.96400
N841        N  0.03974396  0.81707971  0.78076300    -0.05700
N842        N  0.06818668  0.82481173  0.78362624    -0.58200
N843        N  0.46426409  0.81733612  0.78282276    -0.03800
N844        N  0.44022792  0.83262114  0.78971981    -0.59500
N845        N  0.47776676  0.80589117  0.80803879    -0.05800
N846        N  0.46324484  0.81321064  0.83250621    -0.58500
N847        N  0.02682272  0.82795868  0.75501591    -0.03500
N848        N  0.04643197  0.84319262  0.73969969    -0.59600
Mn849      Mn  0.48339542  0.81006960  0.73693397     1.18400
C850        C  0.07188205  0.84133628  0.75817918     0.98700
C851        C  0.43971197  0.82985640  0.82085528     0.99400
N852        N  0.02589235  0.71007148  0.69882342    -0.05800
N853        N  0.04030187  0.70264280  0.67432010    -0.62100
N854        N  0.47694705  0.68801767  0.75186868    -0.04600
N855        N  0.45738933  0.67268886  0.76715769    -0.62800
N856        N  0.46399118  0.69891228  0.72614345    -0.05300
N857        N  0.43557188  0.69109919  0.72326954    -0.62300
N858        N  0.03942434  0.69863059  0.72402564    -0.04200
N859        N  0.06337208  0.68323287  0.71708174    -0.63000
Mn860      Mn  0.48361835  0.73604750  0.70168419     1.10700
C861        C  0.06379762  0.68593555  0.68593429     0.99900
C862        C  0.43193311  0.67450382  0.74868419     1.00000
N863        N  0.00109681  0.74125493  0.82715478    -0.05300
N864        N  0.49135636  0.74016026  0.85501793    -0.60700
N865        N  0.06176690  0.72749519  0.78758942    -0.04600
N866        N  0.08942038  0.71793765  0.78581461    -0.57400
N867        N  0.06156365  0.75407004  0.80061986    -0.05900
N868        N  0.08915413  0.76313036  0.80793098    -0.60200
N869        N  0.00154825  0.71431697  0.81498922    -0.04900
N870        N  0.49193821  0.69429919  0.83453389    -0.57400
Mn871      Mn  0.02009431  0.77995164  0.80519559     1.20200
Mn872      Mn  0.02036441  0.70592624  0.76993625     1.10100
Cl873      Cl  0.50186493  0.75799377  0.75343862    -0.85400
C874        C  0.48527268  0.71089774  0.85900266     0.97000
C875        C  0.10606896  0.74057568  0.79832348     0.96700
N876        N  0.28226479  0.95393754  0.80461369    -0.05500
N877        N  0.29062447  0.92855495  0.81900192    -0.57700
N878        N  0.27477933  0.52581468  0.82617417    -0.05200
N879        N  0.27792904  0.54743468  0.84674541    -0.59800
N880        N  0.25093699  0.50955035  0.83064000    -0.04800
N881        N  0.23725497  0.51979929  0.85439524    -0.57600
N882        N  0.30593179  0.97053481  0.79998995    -0.04500
N883        N  0.33064549  0.95671764  0.81106975    -0.60100
C884        C  0.32099061  0.93030091  0.82256339     0.96600
C885        C  0.25456802  0.54321144  0.86432337     0.96400
N886        N  0.28283852  0.57490079  0.74493938    -0.05700
N887        N  0.28922585  0.60345710  0.74030479    -0.58200
N888        N  0.32407758  0.01280763  0.74344745    -0.03800
N889        N  0.35255492  0.00610874  0.74126157    -0.59500
N890        N  0.31176539  0.02149270  0.71639423    -0.05800
N891        N  0.33145629  0.02051197  0.69537845    -0.58500
N892        N  0.29476192  0.56602776  0.77209064    -0.03500
N893        N  0.30890431  0.58843997  0.78633016    -0.59600
Mn894      Mn  0.30047068  0.51865435  0.78563687     1.18400
C895        C  0.30485325  0.61171894  0.76661915     0.98700
C896        C  0.35648293  0.01062830  0.71105667     0.99400
N897        N  0.19176336  0.49485452  0.79069661    -0.05800
N898        N  0.17201793  0.49579160  0.81166274    -0.62100
N899        N  0.20877656  0.95027045  0.73503801    -0.04600
N900        N  0.19466546  0.92784344  0.72079033    -0.62800
N901        N  0.22069449  0.94141011  0.76219269    -0.05300
N902        N  0.21434783  0.91284442  0.76682428    -0.62300
N903        N  0.17948251  0.50352097  0.76362436    -0.04200
N904        N  0.15098633  0.51016413  0.76574221    -0.63000
Mn905      Mn  0.23636755  0.97429420  0.79742288     1.10700
C906        C  0.14700099  0.50563609  0.79592803     0.99900
C907        C  0.19874632  0.90456684  0.74050151     1.00000
N908        N  0.25262336  0.00672896  0.67648256    -0.05300
N909        N  0.26634207  0.99641253  0.65277877    -0.60700
N910        N  0.19761911  0.54571556  0.70711379    -0.04600
N911        N  0.17289089  0.55945089  0.69596545    -0.57400
N912        N  0.22126173  0.56234096  0.70247679    -0.05900
N913        N  0.21286713  0.58766545  0.68799546    -0.60200
N914        N  0.22879058  0.99045844  0.68096987    -0.04900
N915        N  0.22567853  0.96877698  0.66046806    -0.57400
Mn916      Mn  0.26716726  0.54202059  0.70968827     1.20200
Mn917      Mn  0.20309678  0.99763456  0.72147947     1.10100
Cl918      Cl  0.25177877  0.50815539  0.75356012    -0.85400
C919        C  0.24905366  0.97295878  0.64290584     0.97000
C920        C  0.18250526  0.58584645  0.68440769     0.96700
C921        C  0.40301990  0.66623445  0.75788909    -0.17900
C922        C  0.37775081  0.66019782  0.76328435     0.06100
C923        C  0.34840302  0.65021297  0.76681123     0.08000
C924        C  0.32557467  0.63613338  0.76764569    -0.18800
C925        C  0.17813558  0.88005491  0.73941854    -0.17900
C926        C  0.15539338  0.86582319  0.74019533     0.06100
C927        C  0.12608934  0.85566455  0.74365260     0.08000
C928        C  0.10082056  0.84956248  0.74899898    -0.18800
C929        C  0.27119609  0.88958739  0.56254352    -0.17900
C930        C  0.26750237  0.91030111  0.57965347     0.06100
C931        C  0.26197634  0.93367847  0.60043430     0.08000
C932        C  0.25647888  0.95248262  0.61910460    -0.18800
C933        C  0.24717404  0.56359624  0.88821549    -0.17900
C934        C  0.24162148  0.58231145  0.90695442     0.06100
C935        C  0.23598225  0.60561906  0.92777076     0.08000
C936        C  0.23219463  0.62632258  0.94486105    -0.18800
C937        C  0.13774680  0.73968435  0.80417775    -0.17900
C938        C  0.16277367  0.74108709  0.81576253     0.06100
C939        C  0.18691861  0.74479452  0.83764669     0.08000
C940        C  0.20094278  0.74881445  0.86176775    -0.18800
C941        C  0.30244374  0.76750321  0.64531042    -0.17900
C942        C  0.31663492  0.77150942  0.66934166     0.06100
C943        C  0.34092400  0.77513565  0.69107793     0.08000
C944        C  0.36598756  0.77645863  0.70258840    -0.18800
C945        C  0.36400569  0.66838735  0.99657007    -0.17900
C946        C  0.37572629  0.64435038  0.99456718     0.06100
C947        C  0.38450648  0.61410712  0.99385040     0.08000
C948        C  0.39201079  0.58834432  0.99217333    -0.18800
C949        C  0.11113249  0.92746220  0.51409540    -0.17900
C950        C  0.11850524  0.90167458  0.51242178     0.06100
C951        C  0.12716337  0.87141082  0.51186754     0.08000
C952        C  0.13891687  0.84738006  0.51009142    -0.18800
C953        C  0.11872560  0.50501995  0.80906021    -0.17900
C954        C  0.09843785  0.50131294  0.82530586     0.06100
C955        C  0.07933027  0.99612408  0.84903231     0.08000
C956        C  0.06601579  0.99361865  0.87193033    -0.18800
C957        C  0.43722498  0.52203673  0.63463838    -0.17900
C958        C  0.42393851  0.51960723  0.65756669     0.06100
C959        C  0.40490879  0.01459001  0.68140423     0.08000
C960        C  0.38470126  0.01105871  0.69779366    -0.18800
C961        C  0.02356294  0.81781562  0.61861574    -0.17900
C962        C  0.52252555  0.83160448  0.59482427     0.06700
C963        C  0.51673792  0.85300621  0.57151774     0.08000
C964        C  0.51044792  0.87587198  0.55802893    -0.18800
C965        C  0.48039293  0.69817750  0.88834921    -0.17900
C966        C  0.48127119  0.68435785  0.91211272     0.06100
C967        C  0.48676685  0.66284021  0.93534909     0.08000
C968        C  0.99284862  0.63987716  0.94873606    -0.18800
C969        C  0.14570176  0.62354627  0.65057694    -0.12700
C970        C  0.16290277  0.60716130  0.66632446    -0.14200
C971        C  0.08585979  0.67156079  0.66705970    -0.12700
C972        C  0.10349593  0.65904403  0.65088959    -0.14200
C973        C  0.14086514  0.66423405  0.61143272    -0.12700
C974        C  0.15550629  0.68096652  0.59541319    -0.14200
C975        C  0.08944761  0.60494594  0.59315771    -0.12700
C976        C  0.10498893  0.62198768  0.60969260    -0.14200
C977        C  0.41397694  0.91063710  0.91350670    -0.12700
C978        C  0.39839570  0.89361213  0.89700444    -0.14200
C979        C  0.34770597  0.83487674  0.91142408    -0.12700
C980        C  0.36236969  0.85151074  0.89530711    -0.14200
C981        C  0.35768353  0.89227657  0.85616190    -0.12700
C982        C  0.34056068  0.90883256  0.84050883    -0.14200
C983        C  0.41751613  0.84411611  0.83968107    -0.12700
C984        C  0.39979769  0.85658847  0.85580714    -0.14200
C985        C  0.87944085  0.37328551  0.37602568    -0.01900
C986        C  0.62386840  0.14239419  0.13067757    -0.01900
N987        N  0.54511693  0.51045382  0.44495111    -0.05500
N988        N  0.56674372  0.50573331  0.42651802    -0.57700
N989        N  0.99484506  0.06251453  0.45417510    -0.05200
N990        N  0.98033550  0.08705999  0.44542323    -0.59800
N991        N  0.52059345  0.06933504  0.46907321    -0.04800
N992        N  0.52409885  0.09872400  0.47061483    -0.57600
N993        N  0.51904436  0.50348588  0.43082230    -0.04500
N994        N  0.02247107  0.49417993  0.40257351    -0.60100
C995        C  0.55230297  0.49519814  0.40051874     0.96600
C996        C  0.49861529  0.10921569  0.45604897     0.96400
N997        N  0.92818669  0.01950439  0.49548989    -0.05700
N998        N  0.90853697  0.03730487  0.00742882    -0.58200
N999        N  0.95777869  0.47038757  0.44641364    -0.03800
N1000       N  0.94775374  0.45524098  0.42157731    -0.59500
N1001       N  0.94849829  0.45764090  0.47144493    -0.05800
N1002       N  0.93214859  0.43349050  0.46399794    -0.58500
N1003       N  0.93672875  0.03110976  0.46965655    -0.03500
N1004       N  0.92296688  0.05659544  0.46322660    -0.59600
Mn1005     Mn  0.97710136  0.01654959  0.44934597     1.18400
C1006       C  0.90523262  0.05998501  0.48656945     0.98700
C1007       C  0.93210740  0.43194741  0.43280955     0.99400
N1008       N  0.55479636  0.05808069  0.03512983    -0.05800
N1009       N  0.57121962  0.08217633  0.04261568    -0.62100
N1010       N  0.56652085  0.48463556  0.03681479    -0.04600
N1011       N  0.58028118  0.45914016  0.04317739    -0.62800
N1012       N  0.57505793  0.49628928  0.51100262    -0.05300
N1013       N  0.59469437  0.47852447  0.49900691    -0.62300
N1014       N  0.54551584  0.04531036  0.06015017    -0.04200
N1015       N  0.55561113  0.06038366  0.08501049    -0.63000
Mn1016     Mn  0.54970802  0.03413984  0.48967034     1.10700
C1017       C  0.57130339  0.08366186  0.07381435     0.99900
C1018       C  0.59800288  0.45581172  0.01981462     1.00000
N1019       N  0.98265205  0.44637880  0.03749532    -0.05300
N1020       N  0.97914058  0.41698010  0.03603680    -0.60700
N1021       N  0.98420745  0.01222298  0.07572702    -0.04600
N1022       N  0.98078026  0.02148014  0.10399369    -0.57400
N1023       N  0.95813012  0.00528465  0.06158714    -0.05900
N1024       N  0.93650374  0.00997365  0.08002945    -0.60200
N1025       N  0.00841302  0.45321757  0.05235731    -0.04900
N1026       N  0.52292233  0.42869045  0.06116259    -0.57400
Mn1027     Mn  0.95353939  0.48160924  0.01687071     1.20200
Mn1028     Mn  0.52615841  0.49916883  0.05717589     1.10100
Cl1029     Cl  0.00162512  0.00786938  0.50326835    -0.85400
C1030       C  0.00463642  0.40651285  0.05061663     0.97000
C1031       C  0.95094657  0.02045971  0.10604878     0.96700
N1032       N  0.80293472  0.20798494  0.51808056    -0.05500
N1033       N  0.81614486  0.18235582  0.51354122    -0.57700
N1034       N  0.79611922  0.26432994  0.06552327    -0.05200
N1035       N  0.80584749  0.27848681  0.09077894    -0.59800
N1036       N  0.77939717  0.24118170  0.07254195    -0.04800
N1037       N  0.77769757  0.23904394  0.10266936    -0.57600
N1038       N  0.81991578  0.23073665  0.51045993    -0.04500
N1039       N  0.84540338  0.22066227  0.50076936    -0.60100
C1040       C  0.84229391  0.19045355  0.50277036     0.96600
C1041       C  0.79391196  0.26272376  0.11351196     0.96400
N1042       N  0.76392972  0.33247362  0.00789331    -0.05700
N1043       N  0.75496794  0.35869109  0.01769082    -0.58200
N1044       N  0.81217901  0.29283814  0.46906905    -0.03800
N1045       N  0.83735172  0.30168181  0.45703452    -0.59500
N1046       N  0.78896786  0.30253855  0.45157594    -0.05800
N1047       N  0.79793181  0.31779820  0.42753635    -0.58500
N1048       N  0.78670042  0.32246801  0.02566422    -0.03500
N1049       N  0.79375361  0.34165684  0.04807876    -0.59600
Mn1050     Mn  0.80490367  0.27742113  0.01775915     1.18400
C1051       C  0.77390870  0.36419460  0.04258058     0.98700
C1052       C  0.82818654  0.31682817  0.43071191     0.99400
N1053       N  0.71426776  0.21357427  0.05556044    -0.05800
N1054       N  0.70527240  0.19826836  0.07955264    -0.62100
N1055       N  0.71663870  0.19355148  0.48149382    -0.04600
N1056       N  0.70961063  0.17430061  0.45913068    -0.62800
N1057       N  0.73935222  0.18356178  0.49935768    -0.05300
N1058       N  0.74830664  0.15730180  0.48967085    -0.62300
N1059       N  0.69107439  0.22319288  0.03798766    -0.04200
N1060       N  0.66588695  0.21425791  0.04992305    -0.63000
Mn1061     Mn  0.75926899  0.21138079  0.03705148     1.10700
C1062       C  0.67502066  0.19913688  0.07626347     0.99900
C1063       C  0.72941755  0.15174927  0.46475685     1.00000
N1064       N  0.72385843  0.27497748  0.43462726    -0.05300
N1065       N  0.72554297  0.27722466  0.40450883    -0.60700
N1066       N  0.68333056  0.28521656  0.99663126    -0.04600
N1067       N  0.65774300  0.29520419  0.00614498    -0.57400
N1068       N  0.70030930  0.30801512  0.98913544    -0.05900
N1069       N  0.68699176  0.33360104  0.99359075    -0.60200
N1070       N  0.70718286  0.25177065  0.44157810    -0.04900
N1071       N  0.69745466  0.23769089  0.41627419    -0.57400
Mn1072     Mn  0.74398419  0.30471053  0.47016199     1.20200
Mn1073     Mn  0.69839526  0.23859207  0.48932291     1.10100
Cl1074     Cl  0.75163776  0.25802303  0.00356762    -0.85400
C1075       C  0.70935742  0.25356122  0.39359262     0.97000
C1076       C  0.66079019  0.32541290  0.00418417     0.96700
N1077       N  0.94216171  0.26195240  0.20624032    -0.05500
N1078       N  0.91456341  0.25292611  0.19890122    -0.57700
N1079       N  0.00226431  0.30167179  0.19191280    -0.05200
N1080       N  0.51199016  0.32167592  0.17242019    -0.59800
N1081       N  0.00268003  0.27473890  0.17973271    -0.04800
N1082       N  0.51251613  0.27582709  0.15190908    -0.57600
N1083       N  0.94198146  0.28853804  0.21924747    -0.04500
N1084       N  0.91433709  0.29813730  0.22098088    -0.60100
C1085       C  0.89766662  0.27551726  0.20846561     0.96600
C1086       C  0.51869365  0.30507849  0.14796375     0.96400
N1087       N  0.53974335  0.31708001  0.28076277    -0.05700
N1088       N  0.56818604  0.32481213  0.28362588    -0.58200
N1089       N  0.96426352  0.31733610  0.28282276    -0.03800
N1090       N  0.94022735  0.33262113  0.28971980    -0.59500
N1091       N  0.97776629  0.30589132  0.30803881    -0.05800
N1092       N  0.96324444  0.31321092  0.33250625    -0.58500
N1093       N  0.52682199  0.32795881  0.25501566    -0.03500
N1094       N  0.54643114  0.34319273  0.23969928    -0.59600
Mn1095     Mn  0.98339472  0.31006945  0.23693395     1.18400
C1096       C  0.57188127  0.34133657  0.25817872     0.98700
C1097       C  0.93971150  0.32985656  0.32085528     0.99400
N1098       N  0.52589230  0.21007143  0.19882364    -0.05800
N1099       N  0.54030184  0.20264273  0.17432035    -0.62100
N1100       N  0.97694722  0.18801744  0.25186907    -0.04600
N1101       N  0.95738963  0.17268849  0.26715812    -0.62800
N1102       N  0.96399126  0.19891187  0.22614381    -0.05300
N1103       N  0.93557204  0.19109851  0.22326990    -0.62300
N1104       N  0.53942438  0.19863071  0.22402591    -0.04200
N1105       N  0.56337219  0.18323309  0.21708206    -0.63000
Mn1106     Mn  0.98361810  0.23604719  0.20168444     1.10700
C1107       C  0.56379771  0.18593565  0.18593460     0.99900
C1108       C  0.93193340  0.17450317  0.24868459     1.00000
N1109       N  0.50109668  0.24125519  0.32715498    -0.05300
N1110       N  0.99135637  0.24016050  0.35501817    -0.60700
N1111       N  0.56176678  0.22749567  0.28758953    -0.04600
N1112       N  0.58942031  0.21793833  0.28581463    -0.57400
N1113       N  0.56156338  0.25407055  0.30061988    -0.05900
N1114       N  0.58915381  0.26313108  0.30793086    -0.60200
N1115       N  0.50154826  0.21431719  0.31498949    -0.04900
N1116       N  0.99193844  0.19429941  0.33453425    -0.57400
Mn1117     Mn  0.52009394  0.27995195  0.30519560     1.20200
Mn1118     Mn  0.52036442  0.20592641  0.26993651     1.10100
Cl1119     Cl  0.00186459  0.25799380  0.25343876    -0.85400
C1120       C  0.98527291  0.21089796  0.35900301     0.97000
C1121       C  0.60606877  0.24057651  0.29832336     0.96700
N1122       N  0.78226425  0.45393804  0.30461392    -0.05500
N1123       N  0.79062389  0.42855538  0.31900206    -0.57700
N1124       N  0.77477959  0.02581415  0.32617392    -0.05200
N1125       N  0.77792909  0.04743430  0.34674501    -0.59800
N1126       N  0.75093726  0.00954979  0.33063968    -0.04800
N1127       N  0.73725503  0.01979886  0.35439473    -0.57600
N1128       N  0.80593129  0.47053526  0.29999016    -0.04500
N1129       N  0.83064497  0.45671798  0.31106985    -0.60100
C1130       C  0.82099004  0.43030125  0.32256344     0.96600
C1131       C  0.75456794  0.04321113  0.36432283     0.96400
N1132       N  0.78283885  0.07490033  0.24493927    -0.05700
N1133       N  0.78922612  0.10345667  0.24030478    -0.58200
N1134       N  0.82407726  0.51280815  0.24344772    -0.03800
N1135       N  0.85255473  0.50610976  0.24126191    -0.59500
N1136       N  0.81176503  0.52149315  0.21639449    -0.05800
N1137       N  0.83145604  0.52051286  0.19537880    -0.58500
N1138       N  0.79476221  0.06602725  0.27209051    -0.03500
N1139       N  0.80890450  0.08843945  0.28633014    -0.59600
Mn1140     Mn  0.80047103  0.01865385  0.28563667     1.18400
C1141       C  0.80485345  0.11171847  0.26661920     0.98700
C1142       C  0.85648278  0.51062953  0.21105706     0.99400
N1143       N  0.69176377  0.99485363  0.29069612    -0.05800
N1144       N  0.67201827  0.99579034  0.31166220    -0.62100
N1145       N  0.70877582  0.45027112  0.23503851    -0.04600
N1146       N  0.69466467  0.42784416  0.22079081    -0.62800
N1147       N  0.72069375  0.44141073  0.26219318    -0.05300
N1148       N  0.71434701  0.41284506  0.26682474    -0.62300
N1149       N  0.67948289  0.00352006  0.26362388    -0.04200
N1150       N  0.65098660  0.01016282  0.26574168    -0.63000
Mn1151     Mn  0.73636705  0.47429482  0.29742326     1.10700
C1152       C  0.64700125  0.00563457  0.29592748     0.99900
C1153       C  0.69874547  0.40456754  0.24050196     1.00000
N1154       N  0.75262292  0.50672917  0.17648300    -0.05300
N1155       N  0.76634175  0.49641239  0.15277945    -0.60700
N1156       N  0.69761946  0.04571504  0.20711345    -0.04600
N1157       N  0.67289123  0.05945037  0.19596515    -0.57400
N1158       N  0.72126208  0.06234052  0.20247657    -0.05900
N1159       N  0.71286743  0.08766507  0.18799537    -0.60200
N1160       N  0.72879005  0.49045878  0.18097036    -0.04900
N1161       N  0.72567808  0.46877707  0.16046884    -0.57400
Mn1162     Mn  0.76716765  0.04202022  0.20968805     1.20200
Mn1163     Mn  0.70309628  0.49763519  0.22147993     1.10100
Cl1164     Cl  0.75177919  0.00815487  0.25355980    -0.85400
C1165       C  0.74905334  0.47295857  0.14290671     0.97000
C1166       C  0.68250555  0.08584603  0.18440754     0.96700
C1167       C  0.90302024  0.16623369  0.25788953    -0.17900
C1168       C  0.87775113  0.16019710  0.26328475     0.06100
C1169       C  0.84840328  0.15021240  0.26681152     0.08000
C1170       C  0.82557487  0.13613290  0.26764586    -0.18800
C1171       C  0.67813479  0.38005557  0.23941882    -0.17900
C1172       C  0.65539260  0.36582378  0.24019531     0.06100
C1173       C  0.62608853  0.35566503  0.24365223     0.08000
C1174       C  0.60081973  0.34956288  0.24899844    -0.18800
C1175       C  0.77119627  0.38958654  0.06254512    -0.17900
C1176       C  0.76750248  0.41030022  0.07965513     0.06100
C1177       C  0.76197631  0.43367768  0.10043580     0.08000
C1178       C  0.75647871  0.45248204  0.11910585    -0.18800
C1179       C  0.74717369  0.06359619  0.38821464    -0.17900
C1180       C  0.74162099  0.08231164  0.40695329     0.06100
C1181       C  0.73598167  0.10561946  0.42776939     0.08000
C1182       C  0.73219405  0.12632304  0.44485964    -0.18800
C1183       C  0.63774662  0.23968544  0.30417751    -0.17900
C1184       C  0.66277347  0.24108847  0.31576229     0.06100
C1185       C  0.68691827  0.24479617  0.33764654     0.08000
C1186       C  0.70094231  0.24881611  0.36176767    -0.18800
C1187       C  0.80244360  0.26750172  0.14531048    -0.17900
C1188       C  0.81663460  0.27150788  0.16934185     0.06100
C1189       C  0.84092350  0.27513424  0.19107830     0.08000
C1190       C  0.86598701  0.27645743  0.20258890    -0.18800
C1191       C  0.86400615  0.16838703  0.49657060    -0.17900
C1192       C  0.87572712  0.14435022  0.49456790     0.06100
C1193       C  0.88450782  0.11410708  0.49385105     0.08000
C1194       C  0.89201242  0.08834436  0.49217383    -0.18800
C1195       C  0.61113124  0.42746201  0.01409487    -0.17900
C1196       C  0.61850431  0.40167447  0.01242147     0.06100
C1197       C  0.62716285  0.37141080  0.01186763     0.08000
C1198       C  0.63891663  0.34738014  0.01009186    -0.18800
C1199       C  0.61872588  0.00501810  0.30905965    -0.17900
C1200       C  0.59843840  0.00131095  0.32530562     0.06100
C1201       C  0.57932919  0.49612600  0.34903206     0.08000
C1202       C  0.56601440  0.49362029  0.37192985    -0.18800
C1203       C  0.93722576  0.02203511  0.13463849    -0.17900
C1204       C  0.92393905  0.01960525  0.15756661     0.06100
C1205       C  0.90490854  0.51459208  0.18140462     0.08000
C1206       C  0.88470116  0.51106052  0.19779416    -0.18800
C1207       C  0.52356106  0.31781539  0.11861528    -0.17900
C1208       C  0.02252341  0.33160422  0.09482381     0.06700
C1209       C  0.01673567  0.35300603  0.07151737     0.08000
C1210       C  0.01044578  0.37587188  0.05802871    -0.18800
C1211       C  0.98039339  0.19817771  0.38834961    -0.17900
C1212       C  0.98127187  0.18435791  0.41211304     0.06100
C1213       C  0.98676779  0.16284005  0.43534914     0.08000
C1214       C  0.49284974  0.13987690  0.44873583    -0.18800
C1215       C  0.64570205  0.12354625  0.15057720    -0.12700
C1216       C  0.66290302  0.10716106  0.16632454    -0.14200
C1217       C  0.58585997  0.17156090  0.16706006    -0.12700
C1218       C  0.60349620  0.15904415  0.15089000    -0.14200
C1219       C  0.64086544  0.16423425  0.11143314    -0.12700
C1220       C  0.65550650  0.18096664  0.09541343    -0.14200
C1221       C  0.58944809  0.10494636  0.09315773    -0.12700
C1222       C  0.60498928  0.12198800  0.10969281    -0.14200
C1223       C  0.91397606  0.41063721  0.41350668    -0.12700
C1224       C  0.89839496  0.39361222  0.39700434    -0.14200
C1225       C  0.84770552  0.33487679  0.41142404    -0.12700
C1226       C  0.86236912  0.35151079  0.39530698    -0.14200
C1227       C  0.85768289  0.39227668  0.35616177    -0.12700
C1228       C  0.84056007  0.40883277  0.34050876    -0.14200
C1229       C  0.91751563  0.34411628  0.33968104    -0.12700
C1230       C  0.89979712  0.35658862  0.35580704    -0.14200
C1231       C  0.87944084  0.37328550  0.87602566    -0.01900
C1232       C  0.62386840  0.14239419  0.63067756    -0.01900
N1233       N  0.54511693  0.51045382  0.94495110    -0.05500
N1234       N  0.56674373  0.50573331  0.92651803    -0.57700
N1235       N  0.99484504  0.06251454  0.95417511    -0.05200
N1236       N  0.98033547  0.08706001  0.94542325    -0.59800
N1237       N  0.52059347  0.06933505  0.96907320    -0.04800
N1238       N  0.52409888  0.09872401  0.97061482    -0.57600
N1239       N  0.51904437  0.50348589  0.93082229    -0.04500
N1240       N  0.02247109  0.49417994  0.90257350    -0.60100
C1241       C  0.55230298  0.49519813  0.90051875     0.96600
C1242       C  0.49861531  0.10921570  0.95604898     0.96400
N1243       N  0.92818669  0.01950438  0.99548989    -0.05700
N1244       N  0.90853696  0.03730489  0.50742880    -0.58200
N1245       N  0.95777868  0.47038759  0.94641360    -0.03800
N1246       N  0.94775373  0.45524098  0.92157728    -0.59500
N1247       N  0.94849828  0.45764090  0.97144490    -0.05800
N1248       N  0.93214859  0.43349051  0.96399791    -0.58500
N1249       N  0.93672874  0.03110976  0.96965656    -0.03500
N1250       N  0.92296687  0.05659544  0.96322663    -0.59600
Mn1251     Mn  0.97710135  0.01654960  0.94934596     1.18400
C1252       C  0.90523262  0.05998501  0.98656949     0.98700
C1253       C  0.93210740  0.43194741  0.93280952     0.99400
N1254       N  0.55479635  0.05808068  0.53512984    -0.05800
N1255       N  0.57121961  0.08217633  0.54261568    -0.62100
N1256       N  0.56652086  0.48463555  0.53681479    -0.04600
N1257       N  0.58028119  0.45914014  0.54317738    -0.62800
N1258       N  0.57505793  0.49628928  0.01100262    -0.05300
N1259       N  0.59469437  0.47852447  0.99900692    -0.62300
N1260       N  0.54551584  0.04531035  0.56015017    -0.04200
N1261       N  0.55561113  0.06038364  0.58501049    -0.63000
Mn1262     Mn  0.54970803  0.03413984  0.98967034     1.10700
C1263       C  0.57130338  0.08366186  0.57381435     0.99900
C1264       C  0.59800288  0.45581171  0.51981461     1.00000
N1265       N  0.98265206  0.44637879  0.53749532    -0.05300
N1266       N  0.97914060  0.41698009  0.53603675    -0.60700
N1267       N  0.98420746  0.01222299  0.57572702    -0.04600
N1268       N  0.98078028  0.02148018  0.60399370    -0.57400
N1269       N  0.95813014  0.00528468  0.56158715    -0.05900
N1270       N  0.93650375  0.00997371  0.58002945    -0.60200
N1271       N  0.00841304  0.45321755  0.55235730    -0.04900
N1272       N  0.52292234  0.42869042  0.56116253    -0.57400
Mn1273     Mn  0.95353941  0.48160924  0.51687074     1.20200
Mn1274     Mn  0.52615842  0.49916881  0.55717590     1.10100
Cl1275     Cl  0.00162511  0.00786939  0.00326836    -0.85400
C1276       C  0.00463645  0.40651283  0.55061655     0.97000
C1277       C  0.95094659  0.02045978  0.60604878     0.96700
N1278       N  0.80293473  0.20798495  0.01808055    -0.05500
N1279       N  0.81614485  0.18235583  0.01354119    -0.57700
N1280       N  0.79611921  0.26432994  0.56552325    -0.05200
N1281       N  0.80584747  0.27848683  0.59077893    -0.59800
N1282       N  0.77939716  0.24118172  0.57254194    -0.04800
N1283       N  0.77769755  0.23904396  0.60266935    -0.57600
N1284       N  0.81991579  0.23073666  0.01045992    -0.04500
N1285       N  0.84540338  0.22066227  0.00076934    -0.60100
C1286       C  0.84229390  0.19045355  0.00277032     0.96600
C1287       C  0.79391195  0.26272378  0.61351194     0.96400
N1288       N  0.76392972  0.33247362  0.50789327    -0.05700
N1289       N  0.75496796  0.35869110  0.51769076    -0.58200
N1290       N  0.81217901  0.29283816  0.96906907    -0.03800
N1291       N  0.83735172  0.30168183  0.95703454    -0.59500
N1292       N  0.78896786  0.30253856  0.95157596    -0.05800
N1293       N  0.79793181  0.31779822  0.92753636    -0.58500
N1294       N  0.78670042  0.32246802  0.52566419    -0.03500
N1295       N  0.79375361  0.34165685  0.54807872    -0.59600
Mn1296     Mn  0.80490367  0.27742113  0.51775914     1.18400
C1297       C  0.77390871  0.36419462  0.54258053     0.98700
C1298       C  0.82818653  0.31682818  0.93071193     0.99400
N1299       N  0.71426774  0.21357427  0.55556042    -0.05800
N1300       N  0.70527238  0.19826835  0.57955261    -0.62100
N1301       N  0.71663871  0.19355147  0.98149385    -0.04600
N1302       N  0.70961063  0.17430060  0.95913071    -0.62800
N1303       N  0.73935223  0.18356178  0.99935769    -0.05300
N1304       N  0.74830664  0.15730179  0.98967087    -0.62300
N1305       N  0.69107438  0.22319287  0.53798763    -0.04200
N1306       N  0.66588694  0.21425789  0.54992300    -0.63000
Mn1307     Mn  0.75926898  0.21138079  0.53705148     1.10700
C1308       C  0.67502064  0.19913686  0.57626342     0.99900
C1309       C  0.72941755  0.15174926  0.96475688     1.00000
N1310       N  0.72385842  0.27497748  0.93462728    -0.05300
N1311       N  0.72554297  0.27722466  0.90450884    -0.60700
N1312       N  0.68333055  0.28521655  0.49663124    -0.04600
N1313       N  0.65774300  0.29520419  0.50614495    -0.57400
N1314       N  0.70030931  0.30801512  0.48913544    -0.05900
N1315       N  0.68699178  0.33360104  0.49359076    -0.60200
N1316       N  0.70718287  0.25177065  0.94157812    -0.04900
N1317       N  0.69745466  0.23769089  0.91627420    -0.57400
Mn1318     Mn  0.74398419  0.30471054  0.97016201     1.20200
Mn1319     Mn  0.69839526  0.23859207  0.98932294     1.10100
Cl1320     Cl  0.75163775  0.25802302  0.50356761    -0.85400
C1321       C  0.70935742  0.25356123  0.89359264     0.97000
C1322       C  0.66079020  0.32541290  0.50418417     0.96700
N1323       N  0.94216171  0.26195240  0.70624027    -0.05500
N1324       N  0.91456341  0.25292612  0.69890115    -0.57700
N1325       N  0.00226431  0.30167180  0.69191278    -0.05200
N1326       N  0.51199015  0.32167596  0.67242016    -0.59800
N1327       N  0.00268004  0.27473892  0.67973268    -0.04800
N1328       N  0.51251613  0.27582713  0.65190906    -0.57600
N1329       N  0.94198146  0.28853804  0.71924744    -0.04500
N1330       N  0.91433709  0.29813730  0.72098084    -0.60100
C1331       C  0.89766663  0.27551727  0.70846556     0.96600
C1332       C  0.51869364  0.30507853  0.64796372     0.96400
N1333       N  0.53974334  0.31708001  0.78076277    -0.05700
N1334       N  0.56818603  0.32481213  0.78362588    -0.58200
N1335       N  0.96426350  0.31733610  0.78282273    -0.03800
N1336       N  0.94022733  0.33262112  0.78971977    -0.59500
N1337       N  0.97776628  0.30589132  0.80803879    -0.05800
N1338       N  0.96324443  0.31321091  0.83250622    -0.58500
N1339       N  0.52682199  0.32795881  0.75501565    -0.03500
N1340       N  0.54643113  0.34319274  0.73969928    -0.59600
Mn1341     Mn  0.98339472  0.31006945  0.73693392     1.18400
C1342       C  0.57188126  0.34133657  0.75817872     0.98700
C1343       C  0.93971148  0.32985655  0.82085526     0.99400
N1344       N  0.52589232  0.21007146  0.69882363    -0.05800
N1345       N  0.54030187  0.20264276  0.67432033    -0.62100
N1346       N  0.97694721  0.18801745  0.75186904    -0.04600
N1347       N  0.95738961  0.17268849  0.76715808    -0.62800
N1348       N  0.96399125  0.19891188  0.72614378    -0.05300
N1349       N  0.93557203  0.19109851  0.72326985    -0.62300
N1350       N  0.53942440  0.19863073  0.72402589    -0.04200
N1351       N  0.56337222  0.18323312  0.71708204    -0.63000
Mn1352     Mn  0.98361810  0.23604720  0.70168441     1.10700
C1353       C  0.56379773  0.18593569  0.68593458     0.99900
C1354       C  0.93193339  0.17450316  0.74868454     1.00000
N1355       N  0.50109668  0.24125518  0.82715496    -0.05300
N1356       N  0.99135636  0.24016050  0.85501816    -0.60700
N1357       N  0.56176680  0.22749567  0.78758953    -0.04600
N1358       N  0.58942033  0.21793832  0.78581465    -0.57400
N1359       N  0.56156340  0.25407056  0.80061989    -0.05900
N1360       N  0.58915383  0.26313108  0.80793087    -0.60200
N1361       N  0.50154828  0.21431718  0.81498948    -0.04900
N1362       N  0.99193843  0.19429940  0.83453425    -0.57400
Mn1363     Mn  0.52009394  0.27995194  0.80519559     1.20200
Mn1364     Mn  0.52036444  0.20592641  0.76993650     1.10100
Cl1365     Cl  0.00186459  0.25799379  0.75343874    -0.85400
C1366       C  0.98527290  0.21089796  0.85900300     0.97000
C1367       C  0.60606879  0.24057651  0.79832338     0.96700
N1368       N  0.78226425  0.45393805  0.80461394    -0.05500
N1369       N  0.79062389  0.42855540  0.81900209    -0.57700
N1370       N  0.77477960  0.02581416  0.82617390    -0.05200
N1371       N  0.77792909  0.04743430  0.84674499    -0.59800
N1372       N  0.75093725  0.00954980  0.83063967    -0.04800
N1373       N  0.73725504  0.01979886  0.85439472    -0.57600
N1374       N  0.80593129  0.47053525  0.79999017    -0.04500
N1375       N  0.83064497  0.45671799  0.81106987    -0.60100
C1376       C  0.82099003  0.43030126  0.82256348     0.96600
C1377       C  0.75456796  0.04321114  0.86432283     0.96400
N1378       N  0.78283885  0.07490033  0.74493924    -0.05700
N1379       N  0.78922612  0.10345668  0.74030477    -0.58200
N1380       N  0.82407724  0.51280815  0.74344769    -0.03800
N1381       N  0.85255471  0.50610974  0.74126188    -0.59500
N1382       N  0.81176501  0.52149315  0.71639448    -0.05800
N1383       N  0.83145601  0.52051285  0.69537877    -0.58500
N1384       N  0.79476220  0.06602724  0.77209048    -0.03500
N1385       N  0.80890448  0.08843944  0.78633012    -0.59600
Mn1386     Mn  0.80047103  0.01865385  0.78563664     1.18400
C1387       C  0.80485344  0.11171846  0.76661920     0.98700
C1388       C  0.85648275  0.51062951  0.71105702     0.99400
N1389       N  0.69176377  0.99485363  0.79069611    -0.05800
N1390       N  0.67201828  0.99579035  0.81166219    -0.62100
N1391       N  0.70877583  0.45027111  0.73503853    -0.04600
N1392       N  0.69466467  0.42784414  0.72079082    -0.62800
N1393       N  0.72069374  0.44141073  0.76219320    -0.05300
N1394       N  0.71434701  0.41284506  0.76682477    -0.62300
N1395       N  0.67948289  0.00352005  0.76362387    -0.04200
N1396       N  0.65098660  0.01016282  0.76574168    -0.63000
Mn1397     Mn  0.73636705  0.47429483  0.79742327     1.10700
C1398       C  0.64700125  0.00563457  0.79592747     0.99900
C1399       C  0.69874547  0.40456753  0.74050199     1.00000
N1400       N  0.75262290  0.50672918  0.67648299    -0.05300
N1401       N  0.76634174  0.49641239  0.65277943    -0.60700
N1402       N  0.69761946  0.04571504  0.70711344    -0.04600
N1403       N  0.67289122  0.05945038  0.69596515    -0.57400
N1404       N  0.72126207  0.06234053  0.70247655    -0.05900
N1405       N  0.71286742  0.08766508  0.68799535    -0.60200
N1406       N  0.72879005  0.49045877  0.68097036    -0.04900
N1407       N  0.72567808  0.46877705  0.66046884    -0.57400
Mn1408     Mn  0.76716764  0.04202022  0.70968802     1.20200
Mn1409     Mn  0.70309628  0.49763517  0.72147993     1.10100
Cl1410     Cl  0.75177918  0.00815487  0.75355978    -0.85400
C1411       C  0.74905334  0.47295856  0.64290671     0.97000
C1412       C  0.68250555  0.08584604  0.68440754     0.96700
C1413       C  0.90302023  0.16623368  0.75788948    -0.17900
C1414       C  0.87775112  0.16019709  0.76328472     0.06100
C1415       C  0.84840328  0.15021239  0.76681151     0.08000
C1416       C  0.82557486  0.13613289  0.76764587    -0.18800
C1417       C  0.67813479  0.38005556  0.73941886    -0.17900
C1418       C  0.65539260  0.36582376  0.74019534     0.06100
C1419       C  0.62608853  0.35566503  0.74365223     0.08000
C1420       C  0.60081972  0.34956288  0.74899845    -0.18800
C1421       C  0.77119626  0.38958656  0.56254507    -0.17900
C1422       C  0.76750246  0.41030023  0.57965509     0.06100
C1423       C  0.76197630  0.43367768  0.60043578     0.08000
C1424       C  0.75647871  0.45248203  0.61910584    -0.18800
C1425       C  0.74717370  0.06359618  0.88821465    -0.17900
C1426       C  0.74162100  0.08231163  0.90695331     0.06100
C1427       C  0.73598167  0.10561944  0.92776942     0.08000
C1428       C  0.73219404  0.12632303  0.94485966    -0.18800
C1429       C  0.63774664  0.23968545  0.80417750    -0.17900
C1430       C  0.66277349  0.24108848  0.81576228     0.06100
C1431       C  0.68691829  0.24479617  0.83764655     0.08000
C1432       C  0.70094232  0.24881611  0.86176768    -0.18800
C1433       C  0.80244358  0.26750175  0.64531047    -0.17900
C1434       C  0.81663458  0.27150793  0.66934182     0.06100
C1435       C  0.84092350  0.27513427  0.69107827     0.08000
C1436       C  0.86598701  0.27645744  0.70258886    -0.18800
C1437       C  0.86400615  0.16838703  0.99657059    -0.17900
C1438       C  0.87572712  0.14435021  0.99456793     0.06100
C1439       C  0.88450784  0.11410708  0.99385111     0.08000
C1440       C  0.89201243  0.08834436  0.99217389    -0.18800
C1441       C  0.61113122  0.42746200  0.51409483    -0.17900
C1442       C  0.61850429  0.40167446  0.51242140     0.06100
C1443       C  0.62716283  0.37141080  0.51186756     0.08000
C1444       C  0.63891662  0.34738013  0.51009181    -0.18800
C1445       C  0.61872589  0.00501810  0.80905967    -0.17900
C1446       C  0.59843842  0.00131095  0.82530564     0.06100
C1447       C  0.57932922  0.49612599  0.84903207     0.08000
C1448       C  0.56601442  0.49362027  0.87192986    -0.18800
C1449       C  0.93722578  0.02203518  0.63463849    -0.17900
C1450       C  0.92393906  0.01960530  0.65756660     0.06100
C1451       C  0.90490851  0.51459208  0.68140457     0.08000
C1452       C  0.88470112  0.51106051  0.69779411    -0.18800
C1453       C  0.52356104  0.31781544  0.61861525    -0.17900
C1454       C  0.02252340  0.33160424  0.59482376     0.06700
C1455       C  0.01673568  0.35300601  0.57151729     0.08000
C1456       C  0.01044580  0.37587186  0.55802860    -0.18800
C1457       C  0.98039340  0.19817772  0.88834962    -0.17900
C1458       C  0.98127188  0.18435792  0.91211304     0.06100
C1459       C  0.98676777  0.16284007  0.93534916     0.08000
C1460       C  0.49284976  0.13987692  0.94873585    -0.18800
C1461       C  0.64570204  0.12354626  0.65057720    -0.12700
C1462       C  0.66290302  0.10716107  0.66632453    -0.14200
C1463       C  0.58585998  0.17156092  0.66706004    -0.12700
C1464       C  0.60349620  0.15904416  0.65088998    -0.14200
C1465       C  0.64086543  0.16423424  0.61143311    -0.12700
C1466       C  0.65550648  0.18096662  0.59541338    -0.14200
C1467       C  0.58944808  0.10494636  0.59315773    -0.12700
C1468       C  0.60498927  0.12198799  0.60969282    -0.14200
C1469       C  0.91397607  0.41063720  0.91350665    -0.12700
C1470       C  0.89839497  0.39361221  0.89700431    -0.14200
C1471       C  0.84770552  0.33487679  0.91142404    -0.12700
C1472       C  0.86236912  0.35151079  0.89530697    -0.14200
C1473       C  0.85768288  0.39227667  0.85616177    -0.12700
C1474       C  0.84056006  0.40883278  0.84050879    -0.14200
C1475       C  0.91751562  0.34411627  0.83968101    -0.12700
C1476       C  0.89979710  0.35658862  0.85580701    -0.14200
C1477       C  0.87944148  0.87328540  0.37602582    -0.01900
C1478       C  0.62386808  0.64239402  0.13067719    -0.01900
N1479       N  0.54511827  0.01045347  0.44495126    -0.05500
N1480       N  0.56674511  0.00573255  0.42651832    -0.57700
N1481       N  0.99484373  0.56251478  0.45417531    -0.05200
N1482       N  0.98033419  0.58706028  0.44542352    -0.59800
N1483       N  0.52059218  0.56933522  0.46907341    -0.04800
N1484       N  0.52409762  0.59872418  0.47061509    -0.57600
N1485       N  0.51904571  0.00348545  0.43082248    -0.04500
N1486       N  0.02247247  0.99417901  0.40257388    -0.60100
C1487       C  0.55230437  0.99519703  0.40051918     0.96600
C1488       C  0.49861405  0.60921593  0.45604930     0.96400
N1489       N  0.92818536  0.51950461  0.49548988    -0.05700
N1490       N  0.90853542  0.53730501  0.00742857    -0.58200
N1491       N  0.95777992  0.97038731  0.44641361    -0.03800
N1492       N  0.94775480  0.95524077  0.42157730    -0.59500
N1493       N  0.94849960  0.95764060  0.47144493    -0.05800
N1494       N  0.93214978  0.93349029  0.46399797    -0.58500
N1495       N  0.93672742  0.53110990  0.46965653    -0.03500
N1496       N  0.92296536  0.55659544  0.46322635    -0.59600
Mn1497     Mn  0.97710004  0.51654985  0.44934599     1.18400
C1498       C  0.90523098  0.55998498  0.48656909     0.98700
C1499       C  0.93210843  0.93194723  0.43280956     0.99400
N1500       N  0.55479534  0.55808052  0.03512986    -0.05800
N1501       N  0.57121873  0.58217608  0.04261570    -0.62100
N1502       N  0.56652225  0.98463588  0.03681514    -0.04600
N1503       N  0.58028265  0.95914054  0.04317790    -0.62800
N1504       N  0.57505930  0.99628947  0.51100290    -0.05300
N1505       N  0.59469579  0.97852464  0.49900732    -0.62300
N1506       N  0.54551495  0.54531013  0.06015021    -0.04200
N1507       N  0.55561047  0.56038330  0.08501054    -0.63000
Mn1508     Mn  0.54970676  0.53413988  0.48967032     1.10700
C1509       C  0.57130273  0.58366151  0.07381438     0.99900
C1510       C  0.59800436  0.95581201  0.01981517     1.00000
N1511       N  0.98265366  0.94637865  0.03749535    -0.05300
N1512       N  0.97914245  0.91697992  0.03603684    -0.60700
N1513       N  0.98420639  0.51222314  0.07572696    -0.04600
N1514       N  0.98077936  0.52148069  0.10399352    -0.57400
N1515       N  0.95812897  0.50528500  0.06158717    -0.05900
N1516       N  0.93650266  0.50997452  0.08002945    -0.60200
N1517       N  0.00841455  0.95321763  0.05235743    -0.04900
N1518       N  0.52292401  0.92869063  0.06116276    -0.57400
Mn1519     Mn  0.95354078  0.98160896  0.01687070     1.20200
Mn1520     Mn  0.52615962  0.99916897  0.05717600     1.10100
Cl1521     Cl  0.00162382  0.50786948  0.50326834    -0.85400
C1522       C  0.00463835  0.90651287  0.05061675     0.97000
C1523       C  0.95094567  0.52046070  0.10604865     0.96700
N1524       N  0.80293484  0.70798535  0.51808117    -0.05500
N1525       N  0.81614483  0.68235622  0.51354161    -0.57700
N1526       N  0.79611911  0.76433079  0.06552328    -0.05200
N1527       N  0.80584739  0.77848790  0.09077881    -0.59800
N1528       N  0.77939710  0.74118260  0.07254222    -0.04800
N1529       N  0.77769755  0.73904511  0.10266964    -0.57600
N1530       N  0.81991580  0.73073703  0.51046024    -0.04500
N1531       N  0.84540320  0.72066260  0.50076922    -0.60100
C1532       C  0.84229370  0.69045391  0.50277031     0.96600
C1533       C  0.79391191  0.76272505  0.11351199     0.96400
N1534       N  0.76392961  0.83247381  0.00789244    -0.05700
N1535       N  0.75496781  0.85869143  0.01768956    -0.58200
N1536       N  0.81217920  0.79283809  0.46906889    -0.03800
N1537       N  0.83735195  0.80168187  0.45703456    -0.59500
N1538       N  0.78896809  0.80253828  0.45157557    -0.05800
N1539       N  0.79793215  0.81779791  0.42753600    -0.58500
N1540       N  0.78670028  0.82246843  0.02566354    -0.03500
N1541       N  0.79375344  0.84165754  0.04807782    -0.59600
Mn1542     Mn  0.80490365  0.77742152  0.01775906     1.18400
C1543       C  0.77390853  0.86419525  0.04257928     0.98700
C1544       C  0.82818687  0.81682807  0.43071182     0.99400
N1545       N  0.71426774  0.71357469  0.05556084    -0.05800
N1546       N  0.70527226  0.69826870  0.07955294    -0.62100
N1547       N  0.71663903  0.69355124  0.48149457    -0.04600
N1548       N  0.70961104  0.67430014  0.45913162    -0.62800
N1549       N  0.73935251  0.68356176  0.49935858    -0.05300
N1550       N  0.74830702  0.65730169  0.48967206    -0.62300
N1551       N  0.69107441  0.72319310  0.03798783    -0.04200
N1552       N  0.66588693  0.71425791  0.04992297    -0.63000
Mn1553     Mn  0.75926908  0.71138124  0.03705207     1.10700
C1554       C  0.67502051  0.69913696  0.07626348     0.99900
C1555       C  0.72941799  0.65174889  0.46475809     1.00000
N1556       N  0.72385878  0.77497666  0.43462703    -0.05300
N1557       N  0.72554341  0.77722345  0.40450858    -0.60700
N1558       N  0.68333065  0.78521639  0.99663076    -0.04600
N1559       N  0.65774314  0.79520407  0.00614455    -0.57400
N1560       N  0.70030932  0.80801491  0.98913465    -0.05900
N1561       N  0.68699177  0.83360085  0.99358980    -0.60200
N1562       N  0.70718326  0.75176989  0.44157813    -0.04900
N1563       N  0.69745518  0.73768977  0.41627439    -0.57400
Mn1564     Mn  0.74398430  0.80471025  0.47016142     1.20200
Mn1565     Mn  0.69839548  0.73859186  0.48932304     1.10100
Cl1566     Cl  0.75163785  0.75802312  0.00356765    -0.85400
C1567       C  0.70935798  0.75355983  0.39359265     0.97000
C1568       C  0.66079027  0.82541277  0.00418342     0.96700
N1569       N  0.94216216  0.76195296  0.20624001    -0.05500
N1570       N  0.91456380  0.75292693  0.19890073    -0.57700
N1571       N  0.00226517  0.80167195  0.19191291    -0.05200
N1572       N  0.51199148  0.82167606  0.17242052    -0.59800
N1573       N  0.00268070  0.77473911  0.17973269    -0.04800
N1574       N  0.51251712  0.77582729  0.15190922    -0.57600
N1575       N  0.94198207  0.78853855  0.21924726    -0.04500
N1576       N  0.91433778  0.79813805  0.22098058    -0.60100
C1577       C  0.89766717  0.77551820  0.20846514     0.96600
C1578       C  0.51869505  0.80507865  0.14796410     0.96400
N1579       N  0.53974397  0.81707971  0.28076300    -0.05700
N1580       N  0.56818669  0.82481173  0.28362622    -0.58200
N1581       N  0.96426410  0.81733612  0.28282279    -0.03800
N1582       N  0.94022793  0.83262112  0.28971983    -0.59500
N1583       N  0.97776678  0.80589118  0.30803881    -0.05800
N1584       N  0.96324486  0.81321065  0.33250624    -0.58500
N1585       N  0.52682271  0.82795868  0.25501592    -0.03500
N1586       N  0.54643195  0.84319261  0.23969967    -0.59600
Mn1587     Mn  0.98339543  0.81006959  0.23693400     1.18400
C1588       C  0.57188204  0.84133627  0.25817915     0.98700
C1589       C  0.93971198  0.82985639  0.32085530     0.99400
N1590       N  0.52589235  0.71007147  0.19882343    -0.05800
N1591       N  0.54030186  0.70264278  0.17432011    -0.62100
N1592       N  0.97694707  0.68801765  0.25186870    -0.04600
N1593       N  0.95738935  0.67268886  0.26715771    -0.62800
N1594       N  0.96399121  0.69891226  0.22614347    -0.05300
N1595       N  0.93557190  0.69109916  0.22326954    -0.62300
N1596       N  0.53942435  0.69863058  0.22402565    -0.04200
N1597       N  0.56337208  0.68323286  0.21708176    -0.63000
Mn1598     Mn  0.98361836  0.73604748  0.20168421     1.10700
C1599       C  0.56379761  0.68593554  0.18593430     0.99900
C1600       C  0.93193313  0.67450381  0.24868420     1.00000
N1601       N  0.50109682  0.74125493  0.32715480    -0.05300
N1602       N  0.99135636  0.74016026  0.35501793    -0.60700
N1603       N  0.56176690  0.72749520  0.28758942    -0.04600
N1604       N  0.58942038  0.71793766  0.28581461    -0.57400
N1605       N  0.56156365  0.75407005  0.30061988    -0.05900
N1606       N  0.58915413  0.76313036  0.30793102    -0.60200
N1607       N  0.50154826  0.71431698  0.31498922    -0.04900
N1608       N  0.99193819  0.69429920  0.33453387    -0.57400
Mn1609     Mn  0.52009433  0.77995165  0.30519561     1.20200
Mn1610     Mn  0.52036441  0.70592624  0.26993626     1.10100
Cl1611     Cl  0.00186494  0.75799377  0.25343865    -0.85400
C1612       C  0.98527267  0.71089775  0.35900264     0.97000
C1613       C  0.60606896  0.74057569  0.29832351     0.96700
N1614       N  0.78226478  0.95393753  0.30461370    -0.05500
N1615       N  0.79062446  0.92855493  0.31900192    -0.57700
N1616       N  0.77477932  0.52581468  0.32617416    -0.05200
N1617       N  0.77792901  0.54743469  0.34674539    -0.59800
N1618       N  0.75093698  0.50955034  0.33063999    -0.04800
N1619       N  0.73725495  0.51979929  0.35439522    -0.57600
N1620       N  0.80593178  0.97053481  0.29998998    -0.04500
N1621       N  0.83064548  0.95671764  0.31106978    -0.60100
C1622       C  0.82099060  0.93030090  0.32256340     0.96600
C1623       C  0.75456799  0.54321145  0.36432335     0.96400
N1624       N  0.78283854  0.57490078  0.24493937    -0.05700
N1625       N  0.78922587  0.60345709  0.24030476    -0.58200
N1626       N  0.82407759  0.01280764  0.24344750    -0.03800
N1627       N  0.85255493  0.00610874  0.24126161    -0.59500
N1628       N  0.81176540  0.02149270  0.21639427    -0.05800
N1629       N  0.83145630  0.02051197  0.19537850    -0.58500
N1630       N  0.79476193  0.56602777  0.27209063    -0.03500
N1631       N  0.80890432  0.58843999  0.28633013    -0.59600
Mn1632     Mn  0.80047067  0.51865435  0.28563687     1.18400
C1633       C  0.80485327  0.61171894  0.26661911     0.98700
C1634       C  0.85648294  0.01062830  0.21105671     0.99400
N1635       N  0.69176334  0.49485452  0.29069660    -0.05800
N1636       N  0.67201791  0.49579159  0.31166273    -0.62100
N1637       N  0.70877655  0.95027046  0.23503802    -0.04600
N1638       N  0.69466545  0.92784344  0.22079033    -0.62800
N1639       N  0.72069448  0.94141011  0.26219269    -0.05300
N1640       N  0.71434782  0.91284442  0.26682428    -0.62300
N1641       N  0.67948250  0.50352098  0.26362435    -0.04200
N1642       N  0.65098632  0.51016414  0.26574221    -0.63000
Mn1643     Mn  0.73636754  0.97429419  0.29742288     1.10700
C1644       C  0.64700098  0.50563609  0.29592802     0.99900
C1645       C  0.69874630  0.90456684  0.24050150     1.00000
N1646       N  0.75262338  0.00672895  0.17648260    -0.05300
N1647       N  0.76634210  0.99641251  0.15277883    -0.60700
N1648       N  0.69761911  0.54571558  0.20711379    -0.04600
N1649       N  0.67289090  0.55945090  0.19596545    -0.57400
N1650       N  0.72126175  0.56234096  0.20247677    -0.05900
N1651       N  0.71286714  0.58766544  0.18799541    -0.60200
N1652       N  0.72879059  0.99045843  0.18096990    -0.04900
N1653       N  0.72567855  0.96877697  0.16046811    -0.57400
Mn1654     Mn  0.76716727  0.54202059  0.20968827     1.20200
Mn1655     Mn  0.70309678  0.99763456  0.22147949     1.10100
Cl1656     Cl  0.75177877  0.50815540  0.25356011    -0.85400
C1657       C  0.74905371  0.97295875  0.14290589     0.97000
C1658       C  0.68250527  0.58584645  0.18440765     0.96700
C1659       C  0.90301991  0.66623445  0.25788909    -0.17900
C1660       C  0.87775081  0.66019783  0.26328433     0.06100
C1661       C  0.84840302  0.65021299  0.26681120     0.08000
C1662       C  0.82557468  0.63613339  0.26764565    -0.18800
C1663       C  0.67813556  0.88005491  0.23941852    -0.17900
C1664       C  0.65539336  0.86582319  0.24019528     0.06100
C1665       C  0.62608932  0.85566454  0.24365254     0.08000
C1666       C  0.60082055  0.84956247  0.24899893    -0.18800
C1667       C  0.77119607  0.88958739  0.06254351    -0.17900
C1668       C  0.76750236  0.91030110  0.07965350     0.06100
C1669       C  0.76197636  0.93367844  0.10043434     0.08000
C1670       C  0.75647892  0.95248260  0.11910466    -0.18800
C1671       C  0.74717400  0.56359625  0.38821546    -0.17900
C1672       C  0.74162146  0.58231147  0.40695439     0.06100
C1673       C  0.73598226  0.60561906  0.42777074     0.08000
C1674       C  0.73219464  0.62632258  0.44486106    -0.18800
C1675       C  0.63774680  0.73968435  0.30417778    -0.17900
C1676       C  0.66277366  0.74108709  0.31576256     0.06100
C1677       C  0.68691860  0.74479452  0.33764672     0.08000
C1678       C  0.70094278  0.74881444  0.36176777    -0.18800
C1679       C  0.80244372  0.76750321  0.14531044    -0.17900
C1680       C  0.81663492  0.77150943  0.16934167     0.06100
C1681       C  0.84092401  0.77513566  0.19107792     0.08000
C1682       C  0.86598757  0.77645863  0.20258840    -0.18800
C1683       C  0.86400567  0.66838734  0.49657000    -0.17900
C1684       C  0.87572626  0.64435038  0.49456712     0.06100
C1685       C  0.88450645  0.61410712  0.49385035     0.08000
C1686       C  0.89201076  0.58834432  0.49217332    -0.18800
C1687       C  0.61113249  0.92746220  0.01409540    -0.17900
C1688       C  0.61850523  0.90167458  0.01242177     0.06100
C1689       C  0.62716337  0.87141082  0.01186755     0.08000
C1690       C  0.63891687  0.84738006  0.01009144    -0.18800
C1691       C  0.61872559  0.50501996  0.30906020    -0.17900
C1692       C  0.59843783  0.50131295  0.32530583     0.06100
C1693       C  0.57933027  0.99612409  0.34903229     0.08000
C1694       C  0.56601579  0.99361867  0.37193032    -0.18800
C1695       C  0.93722497  0.52203671  0.13463838    -0.17900
C1696       C  0.92393852  0.51960722  0.15756670     0.06100
C1697       C  0.90490878  0.01459002  0.18140425     0.08000
C1698       C  0.88470127  0.01105871  0.19779370    -0.18800
C1699       C  0.52356293  0.81781560  0.11861577    -0.17900
C1700       C  0.02252557  0.83160448  0.09482431     0.06700
C1701       C  0.01673793  0.85300622  0.07151780     0.08000
C1702       C  0.01044793  0.87587198  0.05802898    -0.18800
C1703       C  0.98039290  0.69817749  0.38834918    -0.17900
C1704       C  0.98127115  0.68435783  0.41211269     0.06100
C1705       C  0.98676682  0.66284018  0.43534904     0.08000
C1706       C  0.49284865  0.63987713  0.44873600    -0.18800
C1707       C  0.64570176  0.62354626  0.15057692    -0.12700
C1708       C  0.66290277  0.60716129  0.16632442    -0.14200
C1709       C  0.58585978  0.67156077  0.16705971    -0.12700
C1710       C  0.60349593  0.65904402  0.15088960    -0.14200
C1711       C  0.64086512  0.66423407  0.11143273    -0.12700
C1712       C  0.65550628  0.68096652  0.09541319    -0.14200
C1713       C  0.58944760  0.60494597  0.09315768    -0.12700
C1714       C  0.60498892  0.62198769  0.10969258    -0.14200
C1715       C  0.91397691  0.91063709  0.41350673    -0.12700
C1716       C  0.89839568  0.89361212  0.39700445    -0.14200
C1717       C  0.84770595  0.83487673  0.41142407    -0.12700
C1718       C  0.86236968  0.85151073  0.39530711    -0.14200
C1719       C  0.85768352  0.89227655  0.35616190    -0.12700
C1720       C  0.84056066  0.90883254  0.34050883    -0.14200
C1721       C  0.91751614  0.84411611  0.33968109    -0.12700
C1722       C  0.89979768  0.85658846  0.35580715    -0.14200
C1723       C  0.87944148  0.87328541  0.87602582    -0.01900
C1724       C  0.62386809  0.64239402  0.63067720    -0.01900
N1725       N  0.54511828  0.01045347  0.94495127    -0.05500
N1726       N  0.56674512  0.00573252  0.92651834    -0.57700
N1727       N  0.99484373  0.56251480  0.95417532    -0.05200
N1728       N  0.98033418  0.58706030  0.94542356    -0.59800
N1729       N  0.52059217  0.56933523  0.96907341    -0.04800
N1730       N  0.52409761  0.59872418  0.97061511    -0.57600
N1731       N  0.51904572  0.00348546  0.93082248    -0.04500
N1732       N  0.02247247  0.99417901  0.90257388    -0.60100
C1733       C  0.55230438  0.99519700  0.90051920     0.96600
C1734       C  0.49861404  0.60921594  0.95604933     0.96400
N1735       N  0.92818534  0.51950461  0.99548984    -0.05700
N1736       N  0.90853542  0.53730500  0.50742860    -0.58200
N1737       N  0.95777992  0.97038732  0.94641359    -0.03800
N1738       N  0.94775480  0.95524079  0.92157727    -0.59500
N1739       N  0.94849961  0.95764060  0.97144491    -0.05800
N1740       N  0.93214980  0.93349029  0.96399794    -0.58500
N1741       N  0.93672741  0.53110991  0.96965650    -0.03500
N1742       N  0.92296536  0.55659545  0.96322633    -0.59600
Mn1743     Mn  0.97710004  0.51654986  0.94934597     1.18400
C1744       C  0.90523098  0.55998499  0.98656908     0.98700
C1745       C  0.93210844  0.93194724  0.93280953     0.99400
N1746       N  0.55479535  0.55808050  0.53512989    -0.05800
N1747       N  0.57121876  0.58217606  0.54261573    -0.62100
N1748       N  0.56652224  0.98463587  0.53681513    -0.04600
N1749       N  0.58028265  0.95914053  0.54317788    -0.62800
N1750       N  0.57505931  0.99628947  0.01100291    -0.05300
N1751       N  0.59469580  0.97852464  0.99900733    -0.62300
N1752       N  0.54551496  0.54531011  0.56015024    -0.04200
N1753       N  0.55561048  0.56038327  0.58501057    -0.63000
Mn1754     Mn  0.54970675  0.53413988  0.98967031     1.10700
C1755       C  0.57130276  0.58366148  0.57381442     0.99900
C1756       C  0.59800436  0.95581200  0.51981515     1.00000
N1757       N  0.98265365  0.94637866  0.53749536    -0.05300
N1758       N  0.97914244  0.91697993  0.53603683    -0.60700
N1759       N  0.98420640  0.51222311  0.57572698    -0.04600
N1760       N  0.98077938  0.52148068  0.60399354    -0.57400
N1761       N  0.95812899  0.50528499  0.56158719    -0.05900
N1762       N  0.93650268  0.50997453  0.58002946    -0.60200
N1763       N  0.00841454  0.95321763  0.55235743    -0.04900
N1764       N  0.52292401  0.92869062  0.56116274    -0.57400
Mn1765     Mn  0.95354078  0.98160898  0.51687071     1.20200
Mn1766     Mn  0.52615962  0.99916897  0.55717599     1.10100
Cl1767     Cl  0.00162381  0.50786948  0.00326833    -0.85400
C1768       C  0.00463834  0.90651287  0.55061673     0.97000
C1769       C  0.95094569  0.52046071  0.60604866     0.96700
N1770       N  0.80293484  0.70798535  0.01808118    -0.05500
N1771       N  0.81614483  0.68235623  0.01354164    -0.57700
N1772       N  0.79611914  0.76433078  0.56552327    -0.05200
N1773       N  0.80584741  0.77848789  0.59077879    -0.59800
N1774       N  0.77939712  0.74118260  0.57254220    -0.04800
N1775       N  0.77769756  0.73904511  0.60266963    -0.57600
N1776       N  0.81991580  0.73073704  0.01046026    -0.04500
N1777       N  0.84540320  0.72066262  0.00076925    -0.60100
C1778       C  0.84229371  0.69045391  0.00277034     0.96600
C1779       C  0.79391193  0.76272505  0.61351198     0.96400
N1780       N  0.76392963  0.83247380  0.50789245    -0.05700
N1781       N  0.75496784  0.85869142  0.51768958    -0.58200
N1782       N  0.81217919  0.79283810  0.96906891    -0.03800
N1783       N  0.83735194  0.80168188  0.95703457    -0.59500
N1784       N  0.78896809  0.80253829  0.95157557    -0.05800
N1785       N  0.79793215  0.81779791  0.92753600    -0.58500
N1786       N  0.78670031  0.82246843  0.52566354    -0.03500
N1787       N  0.79375348  0.84165753  0.54807781    -0.59600
Mn1788     Mn  0.80490366  0.77742151  0.51775905     1.18400
C1789       C  0.77390857  0.86419524  0.54257928     0.98700
C1790       C  0.82818688  0.81682807  0.93071182     0.99400
N1791       N  0.71426774  0.71357470  0.55556085    -0.05800
N1792       N  0.70527226  0.69826871  0.57955295    -0.62100
N1793       N  0.71663904  0.69355124  0.98149455    -0.04600
N1794       N  0.70961106  0.67430014  0.95913160    -0.62800
N1795       N  0.73935252  0.68356177  0.99935857    -0.05300
N1796       N  0.74830703  0.65730169  0.98967206    -0.62300
N1797       N  0.69107441  0.72319310  0.53798784    -0.04200
N1798       N  0.66588694  0.71425792  0.54992298    -0.63000
Mn1799     Mn  0.75926909  0.71138124  0.53705207     1.10700
C1800       C  0.67502052  0.69913697  0.57626349     0.99900
C1801       C  0.72941801  0.65174889  0.96475809     1.00000
N1802       N  0.72385878  0.77497666  0.93462701    -0.05300
N1803       N  0.72554343  0.77722345  0.90450856    -0.60700
N1804       N  0.68333064  0.78521639  0.49663076    -0.04600
N1805       N  0.65774313  0.79520407  0.50614453    -0.57400
N1806       N  0.70030933  0.80801491  0.48913467    -0.05900
N1807       N  0.68699177  0.83360084  0.49358980    -0.60200
N1808       N  0.70718326  0.75176989  0.94157811    -0.04900
N1809       N  0.69745520  0.73768976  0.91627436    -0.57400
Mn1810     Mn  0.74398430  0.80471025  0.97016141     1.20200
Mn1811     Mn  0.69839548  0.73859186  0.98932302     1.10100
Cl1812     Cl  0.75163785  0.75802312  0.50356765    -0.85400
C1813       C  0.70935800  0.75355982  0.89359263     0.97000
C1814       C  0.66079026  0.82541277  0.50418341     0.96700
N1815       N  0.94216216  0.76195298  0.70623997    -0.05500
N1816       N  0.91456379  0.75292695  0.69890069    -0.57700
N1817       N  0.00226518  0.80167197  0.69191288    -0.05200
N1818       N  0.51199149  0.82167608  0.67242049    -0.59800
N1819       N  0.00268071  0.77473913  0.67973267    -0.04800
N1820       N  0.51251712  0.77582731  0.65190918    -0.57600
N1821       N  0.94198207  0.78853857  0.71924722    -0.04500
N1822       N  0.91433777  0.79813807  0.72098054    -0.60100
C1823       C  0.89766717  0.77551821  0.70846510     0.96600
C1824       C  0.51869504  0.80507866  0.64796407     0.96400
N1825       N  0.53974396  0.81707971  0.78076300    -0.05700
N1826       N  0.56818668  0.82481173  0.78362624    -0.58200
N1827       N  0.96426409  0.81733612  0.78282276    -0.03800
N1828       N  0.94022792  0.83262114  0.78971981    -0.59500
N1829       N  0.97776676  0.80589117  0.80803879    -0.05800
N1830       N  0.96324484  0.81321064  0.83250621    -0.58500
N1831       N  0.52682271  0.82795868  0.75501591    -0.03500
N1832       N  0.54643196  0.84319262  0.73969969    -0.59600
Mn1833     Mn  0.98339542  0.81006960  0.73693397     1.18400
C1834       C  0.57188204  0.84133628  0.75817918     0.98700
C1835       C  0.93971197  0.82985639  0.82085528     0.99400
N1836       N  0.52589234  0.71007148  0.69882342    -0.05800
N1837       N  0.54030186  0.70264279  0.67432010    -0.62100
N1838       N  0.97694706  0.68801766  0.75186868    -0.04600
N1839       N  0.95738934  0.67268887  0.76715769    -0.62800
N1840       N  0.96399119  0.69891228  0.72614345    -0.05300
N1841       N  0.93557189  0.69109918  0.72326954    -0.62300
N1842       N  0.53942434  0.69863059  0.72402564    -0.04200
N1843       N  0.56337207  0.68323286  0.71708174    -0.63000
Mn1844     Mn  0.98361836  0.73604750  0.70168419     1.10700
C1845       C  0.56379761  0.68593555  0.68593429     0.99900
C1846       C  0.93193312  0.67450382  0.74868419     1.00000
N1847       N  0.50109680  0.74125493  0.82715478    -0.05300
N1848       N  0.99135636  0.74016025  0.85501793    -0.60700
N1849       N  0.56176689  0.72749519  0.78758942    -0.04600
N1850       N  0.58942038  0.71793765  0.78581462    -0.57400
N1851       N  0.56156364  0.75407004  0.80061986    -0.05900
N1852       N  0.58915413  0.76313036  0.80793099    -0.60200
N1853       N  0.50154825  0.71431697  0.81498922    -0.04900
N1854       N  0.99193821  0.69429919  0.83453389    -0.57400
Mn1855     Mn  0.52009431  0.77995164  0.80519558     1.20200
Mn1856     Mn  0.52036440  0.70592624  0.76993625     1.10100
Cl1857     Cl  0.00186493  0.75799378  0.75343862    -0.85400
C1858       C  0.98527268  0.71089774  0.85900266     0.97000
C1859       C  0.60606896  0.74057568  0.79832349     0.96700
N1860       N  0.78226477  0.95393754  0.80461369    -0.05500
N1861       N  0.79062446  0.92855495  0.81900192    -0.57700
N1862       N  0.77477932  0.52581468  0.82617417    -0.05200
N1863       N  0.77792902  0.54743468  0.84674540    -0.59800
N1864       N  0.75093698  0.50955035  0.83064000    -0.04800
N1865       N  0.73725496  0.51979928  0.85439523    -0.57600
N1866       N  0.80593178  0.97053481  0.79998995    -0.04500
N1867       N  0.83064548  0.95671764  0.81106975    -0.60100
C1868       C  0.82099060  0.93030091  0.82256339     0.96600
C1869       C  0.75456800  0.54321144  0.86432337     0.96400
N1870       N  0.78283853  0.57490078  0.74493938    -0.05700
N1871       N  0.78922587  0.60345710  0.74030478    -0.58200
N1872       N  0.82407758  0.01280763  0.74344745    -0.03800
N1873       N  0.85255492  0.00610873  0.74126157    -0.59500
N1874       N  0.81176539  0.02149270  0.71639424    -0.05800
N1875       N  0.83145629  0.02051196  0.69537845    -0.58500
N1876       N  0.79476192  0.56602776  0.77209064    -0.03500
N1877       N  0.80890431  0.58843997  0.78633016    -0.59600
Mn1878     Mn  0.80047067  0.51865435  0.78563687     1.18400
C1879       C  0.80485327  0.61171893  0.76661914     0.98700
C1880       C  0.85648293  0.01062829  0.71105666     0.99400
N1881       N  0.69176335  0.49485452  0.79069660    -0.05800
N1882       N  0.67201792  0.49579159  0.81166273    -0.62100
N1883       N  0.70877655  0.95027045  0.73503800    -0.04600
N1884       N  0.69466545  0.92784344  0.72079032    -0.62800
N1885       N  0.72069448  0.94141011  0.76219269    -0.05300
N1886       N  0.71434782  0.91284443  0.76682428    -0.62300
N1887       N  0.67948250  0.50352097  0.76362436    -0.04200
N1888       N  0.65098632  0.51016413  0.76574220    -0.63000
Mn1889     Mn  0.73636754  0.97429420  0.79742287     1.10700
C1890       C  0.64700098  0.50563608  0.79592803     0.99900
C1891       C  0.69874630  0.90456684  0.74050151     1.00000
N1892       N  0.75262337  0.00672896  0.67648256    -0.05300
N1893       N  0.76634208  0.99641252  0.65277877    -0.60700
N1894       N  0.69761911  0.54571557  0.70711379    -0.04600
N1895       N  0.67289089  0.55945090  0.69596546    -0.57400
N1896       N  0.72126174  0.56234096  0.70247679    -0.05900
N1897       N  0.71286713  0.58766545  0.68799546    -0.60200
N1898       N  0.72879058  0.99045843  0.68096986    -0.04900
N1899       N  0.72567854  0.96877697  0.66046807    -0.57400
Mn1900     Mn  0.76716726  0.54202059  0.70968827     1.20200
Mn1901     Mn  0.70309678  0.99763456  0.72147947     1.10100
Cl1902     Cl  0.75177876  0.50815539  0.75356011    -0.85400
C1903       C  0.74905368  0.97295878  0.64290584     0.97000
C1904       C  0.68250526  0.58584645  0.68440769     0.96700
C1905       C  0.90301990  0.66623446  0.75788909    -0.17900
C1906       C  0.87775081  0.66019782  0.76328435     0.06100
C1907       C  0.84840303  0.65021297  0.76681123     0.08000
C1908       C  0.82557469  0.63613337  0.76764569    -0.18800
C1909       C  0.67813557  0.88005491  0.73941853    -0.17900
C1910       C  0.65539337  0.86582319  0.74019532     0.06100
C1911       C  0.62608933  0.85566455  0.74365260     0.08000
C1912       C  0.60082055  0.84956248  0.74899898    -0.18800
C1913       C  0.77119611  0.88958739  0.56254352    -0.17900
C1914       C  0.76750239  0.91030111  0.57965347     0.06100
C1915       C  0.76197636  0.93367847  0.60043430     0.08000
C1916       C  0.75647890  0.95248262  0.61910460    -0.18800
C1917       C  0.74717402  0.56359623  0.88821549    -0.17900
C1918       C  0.74162148  0.58231144  0.90695442     0.06100
C1919       C  0.73598226  0.60561904  0.92777077     0.08000
C1920       C  0.73219465  0.62632257  0.94486107    -0.18800
C1921       C  0.63774679  0.73968434  0.80417776    -0.17900
C1922       C  0.66277367  0.74108709  0.81576254     0.06100
C1923       C  0.68691862  0.74479451  0.83764669     0.08000
C1924       C  0.70094281  0.74881443  0.86176774    -0.18800
C1925       C  0.80244373  0.76750321  0.64531043    -0.17900
C1926       C  0.81663491  0.77150942  0.66934166     0.06100
C1927       C  0.84092400  0.77513565  0.69107793     0.08000
C1928       C  0.86598756  0.77645863  0.70258839    -0.18800
C1929       C  0.86400568  0.66838736  0.99657006    -0.17900
C1930       C  0.87572628  0.64435040  0.99456717     0.06100
C1931       C  0.88450648  0.61410714  0.99385039     0.08000
C1932       C  0.89201079  0.58834433  0.99217332    -0.18800
C1933       C  0.61113249  0.92746220  0.51409538    -0.17900
C1934       C  0.61850523  0.90167458  0.51242177     0.06100
C1935       C  0.62716336  0.87141082  0.51186754     0.08000
C1936       C  0.63891686  0.84738006  0.51009141    -0.18800
C1937       C  0.61872560  0.50501995  0.80906020    -0.17900
C1938       C  0.59843784  0.50131295  0.82530585     0.06100
C1939       C  0.57933028  0.99612407  0.84903231     0.08000
C1940       C  0.56601581  0.99361864  0.87193034    -0.18800
C1941       C  0.93722498  0.52203673  0.63463838    -0.17900
C1942       C  0.92393851  0.51960723  0.65756669     0.06100
C1943       C  0.90490878  0.01459004  0.68140422     0.08000
C1944       C  0.88470126  0.01105871  0.69779366    -0.18800
C1945       C  0.52356293  0.81781562  0.61861573    -0.17900
C1946       C  0.02252556  0.83160449  0.59482428     0.06700
C1947       C  0.01673793  0.85300622  0.57151774     0.08000
C1948       C  0.01044792  0.87587198  0.55802892    -0.18800
C1949       C  0.98039293  0.69817750  0.88834921    -0.17900
C1950       C  0.98127119  0.68435784  0.91211272     0.06100
C1951       C  0.98676684  0.66284021  0.93534910     0.08000
C1952       C  0.49284864  0.63987715  0.94873604    -0.18800
C1953       C  0.64570176  0.62354628  0.65057695    -0.12700
C1954       C  0.66290277  0.60716131  0.66632446    -0.14200
C1955       C  0.58585978  0.67156078  0.66705971    -0.12700
C1956       C  0.60349593  0.65904403  0.65088959    -0.14200
C1957       C  0.64086513  0.66423406  0.61143273    -0.12700
C1958       C  0.65550628  0.68096653  0.59541319    -0.14200
C1959       C  0.58944762  0.60494594  0.59315772    -0.12700
C1960       C  0.60498893  0.62198768  0.60969261    -0.14200
C1961       C  0.91397693  0.91063710  0.91350670    -0.12700
C1962       C  0.89839569  0.89361213  0.89700443    -0.14200
C1963       C  0.84770596  0.83487674  0.91142408    -0.12700
C1964       C  0.86236968  0.85151074  0.89530711    -0.14200
C1965       C  0.85768352  0.89227656  0.85616189    -0.12700
C1966       C  0.84056066  0.90883255  0.84050883    -0.14200
C1967       C  0.91751612  0.84411611  0.83968107    -0.12700
C1968       C  0.89979768  0.85658847  0.85580713    -0.14200
loop_ 
_geom_bond_atom_site_label_1 
_geom_bond_atom_site_label_2 
_geom_bond_distance 
_geom_bond_site_symmetry_2 
_ccdc_geom_bond_type 
C1          C240   1.508       .  S
C1          C242   1.518       .  S
C1          C243   1.514       .  S
C1          C246   1.513       .  S
C2          C231   1.513       .  S
C2          C234   1.512       .  S
C2          C235   1.517       .  S
C2          C238   1.508       .  S
N3            N4   1.319       .  A
N3            N9   1.319       .  A
N3         Mn524   2.217       .  S
N4           C11   1.350       .  A
N5            N6   1.316       .  A
N5          N991   1.319       .  A
N5          Mn21   2.202       .  S
N6          C996   1.345       .  A
N7            N8   1.321       .  A
N7          N989   1.319   1_455  A
N7          Mn32   2.191       .  S
N8           C12   1.350   1_455  A
N9          N994   1.319       .  A
N9        Mn1497   2.180   1_455  S
N10         N993   1.319       .  A
N10         C995   1.347       .  A
C11         N994   1.347       .  A
C11         C218   1.427       .  S
C12         N990   1.345       .  A
C12         C230   1.422       .  S
N13          N19   1.314       .  A
N13         N260   1.324       .  A
N13        Mn781   2.204   1_545  S
N14         N259   1.324   1_554  A
N14         C268   1.355   1_554  A
N15          N16   1.329       .  A
N15          N17   1.316       .  A
N15        Mn513   2.231       .  S
N16          C23   1.358       .  A
N17          N18   1.330       .  A
N17        Mn289   2.251       .  S
N18          C23   1.359       .  A
N19          N20   1.314       .  A
N19         Mn21   2.173       .  S
N20          C22   1.342       .  A
Mn21       N1485   2.180       .  S
Mn21        N507   2.231   1_545  S
Mn21        Cl45   2.547       .  S
C22         N260   1.355       .  A
C22         C210   1.429       .  S
C23         C239   1.476       .  S
N24          N25   1.330       .  A
N24          N30   1.317       .  A
N24        Mn278   2.251   1_554  S
N25          C33   1.359       .  A
N26          N27   1.314       .  A
N26         N274   1.314       .  A
N26         Mn44   2.173       .  S
N27          C34   1.342       .  A
N28          N29   1.323       .  A
N28         N272   1.314       .  A
N28        Mn524   2.201       .  S
N29         C280   1.355       .  A
N30          N31   1.329       .  A
N30        Mn536   2.231   1_545  S
N31          C33   1.358       .  A
Mn32        N495   2.217       .  S
Mn32        N270   2.251       .  S
Mn32        N520   2.201   1_545  S
Mn32      Cl1029   2.552       .  S
C33         C237   1.477       .  S
C34         N275   1.355   1_554  A
C34         C211   1.428       .  S
N35          N36   1.321       .  A
N35          N41   1.319       .  A
N35         Mn43   2.192       .  S
N36          C46   1.351       .  A
N37          N38   1.319       .  A
N37          N39   1.319       .  A
N37       Mn1520   2.181   1_545  S
N38          C47   1.347       .  A
N39          N40   1.319       .  A
N39        Mn535   2.217   1_545  S
N40          C47   1.350       .  A
N41        N1026   1.316       .  A
N41       Mn1028   2.201       .  S
N42        N1025   1.316       .  A
N42        C1030   1.345       .  A
Mn43        N751   2.204   1_554  S
Mn43        N263   2.251   1_554  S
Mn43        N531   2.217       .  S
Mn43       Cl783   2.552       .  S
Mn44        N522   2.231       .  S
Mn44       N1513   2.181   1_455  S
Mn44       N1025   2.201       .  S
Mn44      Cl1767   2.546       .  S
Cl45      Mn1016   2.552       .  S
Cl45       Mn781   2.552   1_545  S
Cl45      Mn1766   2.546   1_545  S
C46        N1026   1.345       .  A
C46         C226   1.422       .  S
C47         C219   1.428       .  S
N48          N49   1.312       .  A
N48          N54   1.320       .  A
N48        Mn323   2.183       .  S
N49          C56   1.340       .  A
N50          N52   1.320       .  A
N50          N51   1.318       .  A
N50         Mn66   2.215       .  S
N51          C57   1.348       .  A
N52          N53   1.320       .  A
N52         Mn77   2.188       .  S
N53          C57   1.349       .  A
N54          N55   1.327       .  A
N54        Mn312   2.223       .  S
N55          C56   1.357       .  A
C56         C207   1.427       .  S
C57         C203   1.426       .  S
N58          N64   1.314       .  A
N58          N59   1.321       .  A
N58        Mn334   2.200   1_554  S
N59          C67   1.351       .  A
N60          N61   1.334       .  A
N60          N62   1.318       .  A
N60        Mn312   2.266       .  S
N61          C68   1.364       .  A
N62          N63   1.328       .  A
N62         Mn88   2.227       .  S
N63          C68   1.354       .  A
N64          N65   1.323       .  A
N64         Mn66   2.210       .  S
N65          C67   1.354       .  A
Mn66        N300   2.223       .  S
Mn66        N306   2.266   1_554  S
Mn66        Cl90   2.572       .  S
C67         C191   1.443       .  S
C68         C241   1.484       .  S
N69          N70   1.328       .  A
N69          N75   1.318       .  A
N69         Mn77   2.227       .  S
N70          C78   1.354       .  A
N71          N73   1.314       .  A
N71          N72   1.323       .  A
N71         Mn89   2.210       .  S
N72          C79   1.354       .  A
N73          N74   1.321       .  A
N73        Mn323   2.200       .  S
N74          C79   1.351       .  A
N75          N76   1.334       .  A
N75        Mn335   2.265   1_554  S
N76          C78   1.363       .  A
Mn77        N294   2.183       .  S
Mn77        N319   2.200   1_554  S
Mn77        Cl90   2.540       .  S
C78         C236   1.484       .  S
C79         C198   1.443       .  S
N80          N81   1.320       .  A
N80          N86   1.320       .  A
N80         Mn88   2.188       .  S
N81          C91   1.349       .  A
N82          N83   1.326   1_556  A
N82          N84   1.320       .  A
N82        Mn335   2.221       .  S
N83          C92   1.356       .  A
N84          N85   1.312       .  A
N84        Mn334   2.183       .  S
N85          C92   1.340   1_556  A
N86          N87   1.318       .  A
N86         Mn89   2.215       .  S
N87          C91   1.348       .  A
Mn88        N304   2.200       .  S
Mn88        N330   2.183       .  S
Mn88       Cl336   2.540       .  S
Mn89        N321   2.265       .  S
Mn89        N328   2.221       .  S
Mn89       Cl336   2.572       .  S
Cl90       Mn334   2.540   1_554  S
Cl90       Mn335   2.572   1_554  S
C91         C202   1.426       .  S
C92         C214   1.426       .  S
N93          N94   1.318       .  A
N93          N99   1.318       .  A
N93        Mn122   2.214       .  S
N94         C101   1.349       .  A
N95          N97   1.317       .  A
N95        N1080   1.320       .  A
N95        Mn111   2.222       .  S
N96        N1079   1.320       .  A
N96         C102   1.352       .  A
N97        N1082   1.317       .  A
N97        Mn122   2.167       .  S
N98        N1081   1.317       .  A
N98         C102   1.345       .  A
N99         N100   1.320       .  A
N99        Mn111   2.181       .  S
N100        C101   1.348       .  A
C101        C206   1.426       .  S
C102        C223   1.423       .  S
N103        N109   1.314       .  A
N103        N104   1.317       .  A
N103       Mn133   2.177       .  S
N104        C112   1.344       .  A
N105        N106   1.330       .  A
N105        N107   1.315       .  A
N105       Mn111   2.253       .  S
N106        C113   1.361       .  A
N107        N108   1.329       .  A
N107      Mn1117   2.238       .  S
N108        C113   1.359       .  A
N109        N110   1.322       .  A
N109      Mn1095   2.197   1_455  S
N110        C112   1.351       .  A
Mn111      N1093   2.197       .  S
Mn111      Cl135   2.550       .  S
C112        C190   1.429       .  S
C113        C245   1.481       .  S
N114        N115   1.329       .  A
N114        N120   1.315       .  A
N114      Mn1106   2.237   1_455  S
N115        C123   1.359       .  A
N116        N118   1.314       .  A
N116        N117   1.322       .  A
N116      Mn1118   2.197       .  S
N117        C124   1.351       .  A
N118        N119   1.317       .  A
N118       Mn122   2.177       .  S
N119        C124   1.344       .  A
N120        N121   1.330       .  A
N120       Mn134   2.253       .  S
N121        C123   1.360       .  A
Mn122      N1098   2.237       .  S
Mn122      Cl135   2.542       .  S
C123        C233   1.480       .  S
C124        C183   1.429       .  S
N125        N131   1.317       .  A
N125       N1110   1.317   1_455  A
N125       Mn133   2.166       .  S
N126       N1109   1.317       .  A
N126        C136   1.344       .  A
N127        N128   1.320       .  A
N127        N129   1.318       .  A
N127       Mn134   2.181       .  S
N128        C137   1.348       .  A
N129        N130   1.318       .  A
N129       Mn133   2.214       .  S
N130        C137   1.349       .  A
N131       N1116   1.320   1_455  A
N131       Mn134   2.222       .  S
N132       N1115   1.320       .  A
N132        C136   1.352       .  A
Mn133      N1091   2.238   1_455  S
Mn133     Cl1119   2.542       .  S
Mn134      N1100   2.197   1_455  S
Mn134     Cl1119   2.550       .  S
Cl135     Mn1117   2.542       .  S
Cl135     Mn1118   2.550       .  S
C136        C227   1.423       .  S
C137        C199   1.426       .  S
N138        N139   1.332       .  A
N138        N144   1.317       .  A
N138       Mn167   2.253       .  S
N139        C146   1.361       .  A
N140        N142   1.314       .  A
N140        N141   1.321       .  A
N140       Mn156   2.198       .  S
N141        C147   1.351       .  A
N142        N143   1.323       .  A
N142       Mn659   2.209   1_545  S
N143        C147   1.354       .  A
N144        N145   1.329       .  A
N144       Mn648   2.240       .  S
N145        C146   1.357       .  A
C146        C244   1.481       .  S
C147        C195   1.443       .  S
N148        N154   1.320       .  A
N148        N149   1.321       .  A
N148       Mn178   2.207       .  S
N149        C157   1.352       .  A
N150        N151   1.322       .  A
N150        N152   1.320       .  A
N150       Mn648   2.199       .  S
N151        C158   1.351       .  A
N152        N153   1.315       .  A
N152       Mn670   2.202       .  S
N153        C158   1.345       .  A
N154        N155   1.317       .  A
N154       Mn156   2.200       .  S
N155        C157   1.346       .  A
Mn156       N636   2.240   1_545  S
Mn156       N642   2.199       .  S
Mn156      Cl180   2.550       .  S
C157        C186   1.427       .  S
C158        C222   1.427       .  S
N159        N160   1.316       .  A
N159        N165   1.320   1_565  A
N159       Mn659   2.203       .  S
N160        C168   1.345   1_565  A
N161        N163   1.320       .  A
N161        N162   1.317       .  A
N161       Mn179   2.200       .  S
N162        C169   1.346       .  A
N163        N164   1.321       .  A
N163       Mn167   2.206       .  S
N164        C169   1.352       .  A
N165        N166   1.322       .  A
N165       Mn671   2.198   1_545  S
N166        C168   1.351       .  A
Mn167       N634   2.209       .  S
Mn167       N651   2.203       .  S
Mn167      Cl672   2.555       .  S
C168        C215   1.426       .  S
C169        C187   1.427       .  S
N170        N171   1.323       .  A
N170        N176   1.314       .  A
N170       Mn670   2.210       .  S
N171        C181   1.354       .  A
N172        N173   1.328       .  A
N172        N174   1.317       .  A
N172       Mn671   2.238   1_545  S
N173        C182   1.357       .  A
N174        N175   1.332       .  A
N174       Mn178   2.253       .  S
N175        C182   1.361       .  A
N176        N177   1.321       .  A
N176       Mn179   2.198       .  S
N177        C181   1.351       .  A
Mn178       N644   2.202       .  S
Mn178       N662   2.210       .  S
Mn178      Cl180   2.555       .  S
Mn179       N657   2.198       .  S
Mn179       N664   2.238       .  S
Mn179      Cl672   2.550       .  S
Cl180      Mn659   2.555   1_545  S
Cl180      Mn671   2.550   1_545  S
C181        C194   1.443       .  S
C182        C232   1.481       .  S
C183        C184   1.202       .  T
C184        C185   1.405       .  S
C185        C186   1.201       .  T
C187        C188   1.201       .  T
C188        C189   1.405       .  S
C189        C190   1.202       .  T
C191        C192   1.210       .  T
C192        C193   1.419       .  S
C193        C194   1.210       .  T
C195        C196   1.210       .  T
C196        C197   1.419       .  S
C197        C198   1.210       .  T
C199        C200   1.199       .  T
C200        C201   1.400       .  S
C201        C202   1.199       .  T
C203        C204   1.199       .  T
C204        C205   1.401       .  S
C205        C206   1.199       .  T
C207        C208   1.202       .  T
C208        C209   1.408       .  S
C209        C210   1.203       .  T
C211        C212   1.202       .  T
C212        C213   1.407       .  S
C213        C214   1.202       .  T
C215        C216   1.200       .  T
C216        C709   1.404   1_545  S
C217        C218   1.201       .  T
C217        C708   1.404       .  S
C219        C220   1.201       .  T
C220        C713   1.404       .  S
C221        C222   1.200       .  T
C221        C712   1.404       .  S
C223       C1208   1.198       .  T
C224       C1207   1.198       .  T
C224        C225   1.398       .  S
C225        C226   1.197       .  T
C227        C228   1.197       .  T
C228        C229   1.398       .  S
C229       C1214   1.197       .  T
C230       C1213   1.197       .  T
C231        C232   1.233       .  T
C233        C234   1.232       .  T
C235        C236   1.235       .  T
C237        C238   1.230       .  T
C239        C240   1.230       .  T
C241        C242   1.235       .  T
C243        C244   1.233       .  T
C245        C246   1.233       .  T
C247        C486   1.508       .  S
C247        C488   1.518       .  S
C247        C489   1.514       .  S
C247        C492   1.513       .  S
C248        C477   1.513       .  S
C248        C480   1.512       .  S
C248        C481   1.517       .  S
C248        C484   1.508       .  S
N249        N250   1.319       .  A
N249        N255   1.319       .  A
N249       Mn770   2.217       .  S
N250        C257   1.350       .  A
N251       N1237   1.319       .  A
N251        N252   1.316       .  A
N251       Mn267   2.202       .  S
N252       C1242   1.345       .  A
N253       N1235   1.319   1_455  A
N253        N254   1.321       .  A
N253       Mn278   2.191       .  S
N254        C258   1.350   1_455  A
N255       N1240   1.319       .  A
N255      Mn1743   2.180   1_455  S
N256       N1239   1.319       .  A
N256       C1241   1.347       .  A
C257       N1240   1.347       .  A
C257        C464   1.427       .  S
C258       N1236   1.345       .  A
C258        C476   1.422       .  S
N259        N265   1.314       .  A
N259       Mn535   2.204   1_546  S
N261        N262   1.329       .  A
N261        N263   1.316       .  A
N261       Mn759   2.231       .  S
N262        C269   1.358       .  A
N263        N264   1.330       .  A
N264        C269   1.359       .  A
N265        N266   1.314       .  A
N265       Mn267   2.173       .  S
N266        C268   1.342       .  A
Mn267      N1731   2.180       .  S
Mn267       N753   2.231   1_545  S
Mn267      Cl291   2.547   1_556  S
C268        C456   1.429       .  S
C269        C485   1.476       .  S
N270        N271   1.330       .  A
N270        N276   1.317       .  A
N271        C279   1.359       .  A
N272        N273   1.314       .  A
N272       Mn290   2.173       .  S
N273        C280   1.342       .  A
N274        N275   1.323   1_554  A
N274       Mn770   2.201   1_554  S
N276        N277   1.329       .  A
N276       Mn782   2.231   1_545  S
N277        C279   1.358       .  A
Mn278       N741   2.217       .  S
Mn278       N766   2.201   1_546  S
Mn278     Cl1275   2.552   1_556  S
C279        C483   1.477       .  S
C280        C457   1.428       .  S
N281        N282   1.321       .  A
N281        N287   1.319       .  A
N281       Mn289   2.192       .  S
N282        C292   1.351       .  A
N283        N284   1.319       .  A
N283        N285   1.319       .  A
N283      Mn1766   2.181   1_545  S
N284        C293   1.347       .  A
N285        N286   1.319       .  A
N285       Mn781   2.217   1_545  S
N286        C293   1.350       .  A
N287       N1272   1.316       .  A
N287      Mn1274   2.201       .  S
N288       N1271   1.316       .  A
N288       C1276   1.345       .  A
Mn289       N505   2.204       .  S
Mn289       N777   2.217       .  S
Mn289      Cl537   2.552       .  S
Mn290       N768   2.231       .  S
Mn290      N1759   2.181   1_455  S
Mn290      N1271   2.201       .  S
Mn290     Cl1521   2.546       .  S
Cl291     Mn1262   2.552   1_554  S
Cl291      Mn535   2.552   1_545  S
Cl291     Mn1520   2.546   1_545  S
C292       N1272   1.345       .  A
C292        C472   1.422       .  S
C293        C465   1.428       .  S
N294        N295   1.312       .  A
N294        N300   1.320       .  A
N295        C302   1.340       .  A
N296        N298   1.320       .  A
N296        N297   1.318       .  A
N296       Mn312   2.215       .  S
N297        C303   1.348       .  A
N298        N299   1.320       .  A
N298       Mn323   2.188       .  S
N299        C303   1.349       .  A
N300        N301   1.327       .  A
N301        C302   1.357       .  A
C302        C453   1.427   1_554  S
C303        C449   1.426       .  S
N304        N310   1.314       .  A
N304        N305   1.321       .  A
N305        C313   1.351       .  A
N306        N307   1.334       .  A
N306        N308   1.318       .  A
N307        C314   1.364       .  A
N308        N309   1.328       .  A
N308       Mn334   2.227       .  S
N309        C314   1.354       .  A
N310        N311   1.323       .  A
N310       Mn312   2.210       .  S
N311        C313   1.354       .  A
Mn312      Cl336   2.572       .  S
C313        C437   1.443       .  S
C314        C487   1.484       .  S
N315        N316   1.328       .  A
N315        N321   1.318       .  A
N315       Mn323   2.227       .  S
N316        C324   1.354       .  A
N317        N319   1.314       .  A
N317        N318   1.323       .  A
N317       Mn335   2.210       .  S
N318        C325   1.354       .  A
N319        N320   1.321       .  A
N320        C325   1.351       .  A
N321        N322   1.334       .  A
N322        C324   1.363       .  A
Mn323      Cl336   2.540       .  S
C324        C482   1.484       .  S
C325        C444   1.443       .  S
N326        N327   1.320       .  A
N326        N332   1.320       .  A
N326       Mn334   2.188       .  S
N327        C337   1.349       .  A
N328        N329   1.326       .  A
N328        N330   1.320       .  A
N329        C338   1.356       .  A
N330        N331   1.312       .  A
N331        C338   1.340       .  A
N332        N333   1.318       .  A
N332       Mn335   2.215       .  S
N333        C337   1.348       .  A
C337        C448   1.426       .  S
C338        C460   1.426       .  S
N339        N340   1.318       .  A
N339        N345   1.318       .  A
N339       Mn368   2.214       .  S
N340        C347   1.349       .  A
N341        N343   1.317       .  A
N341       N1326   1.320       .  A
N341       Mn357   2.222       .  S
N342       N1325   1.320       .  A
N342        C348   1.352       .  A
N343       N1328   1.317       .  A
N343       Mn368   2.167       .  S
N344       N1327   1.317       .  A
N344        C348   1.345       .  A
N345        N346   1.320       .  A
N345       Mn357   2.181       .  S
N346        C347   1.348       .  A
C347        C452   1.426       .  S
C348        C469   1.423       .  S
N349        N355   1.314       .  A
N349        N350   1.317       .  A
N349       Mn379   2.177       .  S
N350        C358   1.344       .  A
N351        N352   1.330       .  A
N351        N353   1.315       .  A
N351       Mn357   2.253       .  S
N352        C359   1.361       .  A
N353        N354   1.329       .  A
N353      Mn1363   2.238       .  S
N354        C359   1.359       .  A
N355        N356   1.322       .  A
N355      Mn1341   2.197   1_455  S
N356        C358   1.351       .  A
Mn357      N1339   2.197       .  S
Mn357      Cl381   2.550       .  S
C358        C436   1.429       .  S
C359        C491   1.481       .  S
N360        N361   1.329       .  A
N360        N366   1.315       .  A
N360      Mn1352   2.237   1_455  S
N361        C369   1.359       .  A
N362        N364   1.314       .  A
N362        N363   1.322       .  A
N362      Mn1364   2.197       .  S
N363        C370   1.351       .  A
N364        N365   1.317       .  A
N364       Mn368   2.177       .  S
N365        C370   1.344       .  A
N366        N367   1.330       .  A
N366       Mn380   2.253       .  S
N367        C369   1.360       .  A
Mn368      N1344   2.237       .  S
Mn368      Cl381   2.542       .  S
C369        C479   1.480       .  S
C370        C429   1.429       .  S
N371       N1356   1.317   1_455  A
N371        N377   1.317       .  A
N371       Mn379   2.166       .  S
N372       N1355   1.317       .  A
N372        C382   1.344       .  A
N373        N374   1.320       .  A
N373        N375   1.318       .  A
N373       Mn380   2.181       .  S
N374        C383   1.348       .  A
N375        N376   1.318       .  A
N375       Mn379   2.214       .  S
N376        C383   1.349       .  A
N377       N1362   1.320   1_455  A
N377       Mn380   2.222       .  S
N378       N1361   1.320       .  A
N378        C382   1.352       .  A
Mn379      N1337   2.238   1_455  S
Mn379     Cl1365   2.542       .  S
Mn380      N1346   2.197   1_455  S
Mn380     Cl1365   2.550       .  S
Cl381     Mn1363   2.542       .  S
Cl381     Mn1364   2.550       .  S
C382        C473   1.423       .  S
C383        C445   1.426       .  S
N384        N385   1.332       .  A
N384        N390   1.317       .  A
N384       Mn413   2.253       .  S
N385        C392   1.361       .  A
N386        N388   1.314       .  A
N386        N387   1.321       .  A
N386       Mn402   2.198       .  S
N387        C393   1.351       .  A
N388        N389   1.323       .  A
N388       Mn905   2.209   1_545  S
N389        C393   1.354       .  A
N390        N391   1.329       .  A
N390       Mn894   2.240       .  S
N391        C392   1.357       .  A
C392        C490   1.481       .  S
C393        C441   1.443       .  S
N394        N400   1.320       .  A
N394        N395   1.321       .  A
N394       Mn424   2.207       .  S
N395        C403   1.352       .  A
N396        N397   1.322       .  A
N396        N398   1.320       .  A
N396       Mn894   2.199       .  S
N397        C404   1.351       .  A
N398        N399   1.315       .  A
N398       Mn916   2.202       .  S
N399        C404   1.345       .  A
N400        N401   1.317       .  A
N400       Mn402   2.200       .  S
N401        C403   1.346       .  A
Mn402       N882   2.240   1_545  S
Mn402       N888   2.199       .  S
Mn402      Cl426   2.550       .  S
C403        C432   1.427       .  S
C404        C468   1.427       .  S
N405        N406   1.316       .  A
N405        N411   1.320   1_565  A
N405       Mn905   2.203       .  S
N406        C414   1.345   1_565  A
N407        N409   1.320       .  A
N407        N408   1.317       .  A
N407       Mn425   2.200       .  S
N408        C415   1.346       .  A
N409        N410   1.321       .  A
N409       Mn413   2.206       .  S
N410        C415   1.352       .  A
N411        N412   1.322       .  A
N411       Mn917   2.198   1_545  S
N412        C414   1.351       .  A
Mn413       N880   2.209       .  S
Mn413       N897   2.203       .  S
Mn413      Cl918   2.555       .  S
C414        C461   1.426       .  S
C415        C433   1.427       .  S
N416        N417   1.323       .  A
N416        N422   1.314       .  A
N416       Mn916   2.210       .  S
N417        C427   1.354       .  A
N418        N419   1.328       .  A
N418        N420   1.317       .  A
N418       Mn917   2.238   1_545  S
N419        C428   1.357       .  A
N420        N421   1.332       .  A
N420       Mn424   2.253       .  S
N421        C428   1.361       .  A
N422        N423   1.321       .  A
N422       Mn425   2.198       .  S
N423        C427   1.351       .  A
Mn424       N890   2.202       .  S
Mn424       N908   2.210       .  S
Mn424      Cl426   2.555       .  S
Mn425       N903   2.198       .  S
Mn425       N910   2.238       .  S
Mn425      Cl918   2.550       .  S
Cl426      Mn905   2.555   1_545  S
Cl426      Mn917   2.550   1_545  S
C427        C440   1.443       .  S
C428        C478   1.481       .  S
C429        C430   1.202       .  T
C430        C431   1.405       .  S
C431        C432   1.201       .  T
C433        C434   1.201       .  T
C434        C435   1.405       .  S
C435        C436   1.202       .  T
C437        C438   1.210       .  T
C438        C439   1.419       .  S
C439        C440   1.210       .  T
C441        C442   1.210       .  T
C442        C443   1.419       .  S
C443        C444   1.210       .  T
C445        C446   1.199       .  T
C446        C447   1.400       .  S
C447        C448   1.199       .  T
C449        C450   1.199       .  T
C450        C451   1.401       .  S
C451        C452   1.199       .  T
C453        C454   1.202       .  T
C454        C455   1.408       .  S
C455        C456   1.203       .  T
C457        C458   1.202       .  T
C458        C459   1.407       .  S
C459        C460   1.202       .  T
C461        C462   1.200       .  T
C462        C955   1.404   1_545  S
C463        C464   1.201       .  T
C463        C954   1.404       .  S
C465        C466   1.201       .  T
C466        C959   1.404       .  S
C467        C468   1.200       .  T
C467        C958   1.404       .  S
C469       C1454   1.198       .  T
C470       C1453   1.198       .  T
C470        C471   1.398       .  S
C471        C472   1.197       .  T
C473        C474   1.197       .  T
C474        C475   1.398       .  S
C475       C1460   1.197       .  T
C476       C1459   1.197       .  T
C477        C478   1.233       .  T
C479        C480   1.232       .  T
C481        C482   1.235       .  T
C483        C484   1.230       .  T
C485        C486   1.230       .  T
C487        C488   1.235       .  T
C489        C490   1.233       .  T
C491        C492   1.233       .  T
C493        C732   1.508       .  S
C493        C734   1.518       .  S
C493        C735   1.514       .  S
C493        C738   1.513       .  S
C494        C723   1.513       .  S
C494        C726   1.512       .  S
C494        C727   1.517       .  S
C494        C730   1.508       .  S
N495        N496   1.319       .  A
N495        N501   1.319       .  A
N496        C503   1.350   1_545  A
N497       N1483   1.319       .  A
N497        N498   1.316       .  A
N497       Mn513   2.202       .  S
N498       C1488   1.345       .  A
N499       N1481   1.319   1_455  A
N499        N500   1.321       .  A
N499       Mn524   2.191       .  S
N500        C504   1.350   1_455  A
N501       N1486   1.319   1_545  A
N501      Mn1005   2.180   1_455  S
N502       N1485   1.319   1_565  A
N502       C1487   1.347       .  A
C503       N1486   1.347       .  A
C503        C710   1.427       .  S
C504       N1482   1.345       .  A
C504        C722   1.422       .  S
N505        N511   1.314       .  A
N505        N752   1.324       .  A
N506        N751   1.324   1_554  A
N506        C760   1.355   1_554  A
N507        N508   1.329       .  A
N507        N509   1.316       .  A
N508        C515   1.358       .  A
N509        N510   1.330       .  A
N509       Mn781   2.251       .  S
N510        C515   1.359       .  A
N511        N512   1.314       .  A
N511       Mn513   2.173       .  S
N512        C514   1.342       .  A
Mn513       N993   2.180       .  S
Mn513      Cl537   2.547       .  S
C514        N752   1.355       .  A
C514        C702   1.429       .  S
C515        C731   1.476       .  S
N516        N517   1.330       .  A
N516        N522   1.317       .  A
N516       Mn770   2.251   1_554  S
N517        C525   1.359       .  A
N518        N766   1.314       .  A
N518        N519   1.314       .  A
N518       Mn536   2.173       .  S
N519        C526   1.342       .  A
N520        N764   1.314       .  A
N520        N521   1.323       .  A
N521        C772   1.355       .  A
N522        N523   1.329       .  A
N523        C525   1.358       .  A
Mn524       N762   2.251       .  S
Mn524     Cl1521   2.552       .  S
C525        C729   1.477       .  S
C526        N767   1.355   1_554  A
C526        C703   1.428       .  S
N527        N528   1.321       .  A
N527        N533   1.319       .  A
N527       Mn535   2.192       .  S
N528        C538   1.351       .  A
N529        N530   1.319       .  A
N529        N531   1.319       .  A
N529      Mn1028   2.181       .  S
N530        C539   1.347       .  A
N531        N532   1.319       .  A
N532        C539   1.350       .  A
N533       N1518   1.316       .  A
N533      Mn1520   2.201       .  S
N534       N1517   1.316       .  A
N534       C1522   1.345       .  A
Mn535       N755   2.251   1_554  S
Mn536      N1021   2.181   1_465  S
Mn536      N1517   2.201       .  S
Mn536     Cl1275   2.546   1_565  S
Cl537     Mn1508   2.552       .  S
Cl537     Mn1274   2.546       .  S
C538       N1518   1.345       .  A
C538        C718   1.422       .  S
C539        C711   1.428       .  S
N540        N541   1.312       .  A
N540        N546   1.320       .  A
N540       Mn815   2.183       .  S
N541        C548   1.340       .  A
N542        N544   1.320       .  A
N542        N543   1.318       .  A
N542       Mn558   2.215       .  S
N543        C549   1.348       .  A
N544        N545   1.320       .  A
N544       Mn569   2.188       .  S
N545        C549   1.349       .  A
N546        N547   1.327       .  A
N546       Mn804   2.223       .  S
N547        C548   1.357       .  A
C548        C699   1.427       .  S
C549        C695   1.426       .  S
N550        N556   1.314       .  A
N550        N551   1.321       .  A
N550       Mn826   2.200   1_554  S
N551        C559   1.351       .  A
N552        N553   1.334       .  A
N552        N554   1.318       .  A
N552       Mn804   2.266       .  S
N553        C560   1.364       .  A
N554        N555   1.328       .  A
N554       Mn580   2.227       .  S
N555        C560   1.354       .  A
N556        N557   1.323       .  A
N556       Mn558   2.210       .  S
N557        C559   1.354       .  A
Mn558       N792   2.223       .  S
Mn558       N798   2.266   1_554  S
Mn558      Cl582   2.572       .  S
C559        C683   1.443       .  S
C560        C733   1.484       .  S
N561        N562   1.328       .  A
N561        N567   1.318       .  A
N561       Mn569   2.227       .  S
N562        C570   1.354       .  A
N563        N565   1.314       .  A
N563        N564   1.323       .  A
N563       Mn581   2.210       .  S
N564        C571   1.354       .  A
N565        N566   1.321       .  A
N565       Mn815   2.200       .  S
N566        C571   1.351       .  A
N567        N568   1.334       .  A
N567       Mn827   2.265   1_554  S
N568        C570   1.363       .  A
Mn569       N786   2.183       .  S
Mn569       N811   2.200   1_554  S
Mn569      Cl582   2.540       .  S
C570        C728   1.484       .  S
C571        C690   1.443       .  S
N572        N573   1.320       .  A
N572        N578   1.320       .  A
N572       Mn580   2.188       .  S
N573        C583   1.349       .  A
N574        N575   1.326   1_556  A
N574        N576   1.320       .  A
N574       Mn827   2.221       .  S
N575        C584   1.356       .  A
N576        N577   1.312       .  A
N576       Mn826   2.183       .  S
N577        C584   1.340   1_556  A
N578        N579   1.318       .  A
N578       Mn581   2.215       .  S
N579        C583   1.348       .  A
Mn580       N796   2.200       .  S
Mn580       N822   2.183       .  S
Mn580      Cl828   2.540       .  S
Mn581       N813   2.265       .  S
Mn581       N820   2.221       .  S
Mn581      Cl828   2.572       .  S
Cl582      Mn826   2.540   1_554  S
Cl582      Mn827   2.572   1_554  S
C583        C694   1.426       .  S
C584        C706   1.426       .  S
N585        N586   1.318       .  A
N585        N591   1.318       .  A
N585       Mn614   2.214       .  S
N586        C593   1.349       .  A
N587        N589   1.317       .  A
N587       N1572   1.320       .  A
N587       Mn603   2.222       .  S
N588       N1571   1.320       .  A
N588        C594   1.352       .  A
N589       N1574   1.317       .  A
N589       Mn614   2.167       .  S
N590       N1573   1.317       .  A
N590        C594   1.345       .  A
N591        N592   1.320       .  A
N591       Mn603   2.181       .  S
N592        C593   1.348       .  A
C593        C698   1.426       .  S
C594        C715   1.423       .  S
N595        N601   1.314       .  A
N595        N596   1.317       .  A
N595       Mn625   2.177       .  S
N596        C604   1.344       .  A
N597        N598   1.330       .  A
N597        N599   1.315       .  A
N597       Mn603   2.253       .  S
N598        C605   1.361       .  A
N599        N600   1.329       .  A
N599      Mn1609   2.238       .  S
N600        C605   1.359       .  A
N601        N602   1.322       .  A
N601      Mn1587   2.197   1_455  S
N602        C604   1.351       .  A
Mn603      N1585   2.197       .  S
Mn603      Cl627   2.550       .  S
C604        C682   1.429       .  S
C605        C737   1.481       .  S
N606        N607   1.329       .  A
N606        N612   1.315       .  A
N606      Mn1598   2.237   1_455  S
N607        C615   1.359       .  A
N608        N610   1.314       .  A
N608        N609   1.322       .  A
N608      Mn1610   2.197       .  S
N609        C616   1.351       .  A
N610        N611   1.317       .  A
N610       Mn614   2.177       .  S
N611        C616   1.344       .  A
N612        N613   1.330       .  A
N612       Mn626   2.253       .  S
N613        C615   1.360       .  A
Mn614      N1590   2.237       .  S
Mn614      Cl627   2.542       .  S
C615        C725   1.480       .  S
C616        C675   1.429       .  S
N617       N1602   1.317   1_455  A
N617        N623   1.317       .  A
N617       Mn625   2.166       .  S
N618       N1601   1.317       .  A
N618        C628   1.344       .  A
N619        N620   1.320       .  A
N619        N621   1.318       .  A
N619       Mn626   2.181       .  S
N620        C629   1.348       .  A
N621        N622   1.318       .  A
N621       Mn625   2.214       .  S
N622        C629   1.349       .  A
N623       N1608   1.320   1_455  A
N623       Mn626   2.222       .  S
N624       N1607   1.320       .  A
N624        C628   1.352       .  A
Mn625      N1583   2.238   1_455  S
Mn625     Cl1611   2.542       .  S
Mn626      N1592   2.197   1_455  S
Mn626     Cl1611   2.550       .  S
Cl627     Mn1609   2.542       .  S
Cl627     Mn1610   2.550       .  S
C628        C719   1.423       .  S
C629        C691   1.426       .  S
N630        N631   1.332       .  A
N630        N636   1.317       .  A
N630       Mn659   2.253       .  S
N631        C638   1.361       .  A
N632        N634   1.314       .  A
N632        N633   1.321       .  A
N632       Mn648   2.198       .  S
N633        C639   1.351       .  A
N634        N635   1.323       .  A
N635        C639   1.354       .  A
N636        N637   1.329       .  A
N637        C638   1.357       .  A
C638        C736   1.481       .  S
C639        C687   1.443       .  S
N640        N646   1.320       .  A
N640        N641   1.321       .  A
N640       Mn670   2.207       .  S
N641        C649   1.352       .  A
N642        N643   1.322       .  A
N642        N644   1.320       .  A
N643        C650   1.351       .  A
N644        N645   1.315       .  A
N645        C650   1.345       .  A
N646        N647   1.317       .  A
N646       Mn648   2.200       .  S
N647        C649   1.346       .  A
Mn648      Cl672   2.550       .  S
C649        C678   1.427       .  S
C650        C714   1.427       .  S
N651        N652   1.316       .  A
N651        N657   1.320       .  A
N652        C660   1.345       .  A
N653        N655   1.320       .  A
N653        N654   1.317       .  A
N653       Mn671   2.200       .  S
N654        C661   1.346       .  A
N655        N656   1.321       .  A
N655       Mn659   2.206       .  S
N656        C661   1.352       .  A
N657        N658   1.322       .  A
N658        C660   1.351       .  A
C660        C707   1.426       .  S
C661        C679   1.427       .  S
N662        N663   1.323   1_545  A
N662        N668   1.314   1_545  A
N663        C673   1.354       .  A
N664        N665   1.328       .  A
N664        N666   1.317       .  A
N665        C674   1.357       .  A
N666        N667   1.332       .  A
N666       Mn670   2.253       .  S
N667        C674   1.361       .  A
N668        N669   1.321       .  A
N668       Mn671   2.198       .  S
N669        C673   1.351       .  A
Mn670      Cl672   2.555       .  S
C673        C686   1.443       .  S
C674        C724   1.481       .  S
C675        C676   1.202       .  T
C676        C677   1.405       .  S
C677        C678   1.201       .  T
C679        C680   1.201       .  T
C680        C681   1.405       .  S
C681        C682   1.202       .  T
C683        C684   1.210       .  T
C684        C685   1.419       .  S
C685        C686   1.210       .  T
C687        C688   1.210       .  T
C688        C689   1.419       .  S
C689        C690   1.210       .  T
C691        C692   1.199       .  T
C692        C693   1.400       .  S
C693        C694   1.199       .  T
C695        C696   1.199       .  T
C696        C697   1.401       .  S
C697        C698   1.199       .  T
C699        C700   1.202       .  T
C700        C701   1.408       .  S
C701        C702   1.203       .  T
C703        C704   1.202       .  T
C704        C705   1.407       .  S
C705        C706   1.202       .  T
C707        C708   1.200       .  T
C709        C710   1.201       .  T
C711        C712   1.201       .  T
C713        C714   1.200       .  T
C715       C1700   1.198       .  T
C716       C1699   1.198       .  T
C716        C717   1.398       .  S
C717        C718   1.197       .  T
C719        C720   1.197       .  T
C720        C721   1.398       .  S
C721       C1706   1.197       .  T
C722       C1705   1.197       .  T
C723        C724   1.233       .  T
C725        C726   1.232       .  T
C727        C728   1.235       .  T
C729        C730   1.230       .  T
C731        C732   1.230       .  T
C733        C734   1.235       .  T
C735        C736   1.233       .  T
C737        C738   1.233       .  T
C739        C978   1.508       .  S
C739        C980   1.518       .  S
C739        C981   1.514       .  S
C739        C984   1.513       .  S
C740        C969   1.513       .  S
C740        C972   1.512       .  S
C740        C973   1.517       .  S
C740        C976   1.508       .  S
N741        N742   1.319       .  A
N741        N747   1.319       .  A
N742        C749   1.350   1_545  A
N743       N1729   1.319       .  A
N743        N744   1.316       .  A
N743       Mn759   2.202       .  S
N744       C1734   1.345       .  A
N745       N1727   1.319   1_455  A
N745        N746   1.321       .  A
N745       Mn770   2.191       .  S
N746        C750   1.350   1_455  A
N747       N1732   1.319   1_545  A
N747      Mn1251   2.180   1_455  S
N748       N1731   1.319   1_565  A
N748       C1733   1.347       .  A
C749       N1732   1.347       .  A
C749        C956   1.427       .  S
C750       N1728   1.345       .  A
C750        C968   1.422       .  S
N751        N757   1.314       .  A
N753        N754   1.329       .  A
N753        N755   1.316       .  A
N754        C761   1.358       .  A
N755        N756   1.330       .  A
N756        C761   1.359       .  A
N757        N758   1.314       .  A
N757       Mn759   2.173       .  S
N758        C760   1.342       .  A
Mn759      N1239   2.180       .  S
Mn759      Cl783   2.547   1_556  S
C760        C948   1.429       .  S
C761        C977   1.476       .  S
N762        N763   1.330       .  A
N762        N768   1.317       .  A
N763        C771   1.359       .  A
N764        N765   1.314       .  A
N764       Mn782   2.173       .  S
N765        C772   1.342       .  A
N766        N767   1.323   1_554  A
N768        N769   1.329       .  A
N769        C771   1.358       .  A
Mn770     Cl1767   2.552   1_556  S
C771        C975   1.477       .  S
C772        C949   1.428       .  S
N773        N774   1.321       .  A
N773        N779   1.319       .  A
N773       Mn781   2.192       .  S
N774        C784   1.351       .  A
N775        N776   1.319       .  A
N775        N777   1.319       .  A
N775      Mn1274   2.181       .  S
N776        C785   1.347       .  A
N777        N778   1.319       .  A
N778        C785   1.350       .  A
N779       N1764   1.316       .  A
N779      Mn1766   2.201       .  S
N780       N1763   1.316       .  A
N780       C1768   1.345       .  A
Mn782      N1267   2.181   1_465  S
Mn782      N1763   2.201       .  S
Mn782     Cl1029   2.546   1_565  S
Cl783     Mn1754   2.552   1_554  S
Cl783     Mn1028   2.546       .  S
C784       N1764   1.345       .  A
C784        C964   1.422       .  S
C785        C957   1.428       .  S
N786        N787   1.312       .  A
N786        N792   1.320       .  A
N787        C794   1.340       .  A
N788        N790   1.320       .  A
N788        N789   1.318       .  A
N788       Mn804   2.215       .  S
N789        C795   1.348       .  A
N790        N791   1.320       .  A
N790       Mn815   2.188       .  S
N791        C795   1.349       .  A
N792        N793   1.327       .  A
N793        C794   1.357       .  A
C794        C945   1.427   1_554  S
C795        C941   1.426       .  S
N796        N802   1.314       .  A
N796        N797   1.321       .  A
N797        C805   1.351       .  A
N798        N799   1.334       .  A
N798        N800   1.318       .  A
N799        C806   1.364       .  A
N800        N801   1.328       .  A
N800       Mn826   2.227       .  S
N801        C806   1.354       .  A
N802        N803   1.323       .  A
N802       Mn804   2.210       .  S
N803        C805   1.354       .  A
Mn804      Cl828   2.572       .  S
C805        C929   1.443       .  S
C806        C979   1.484       .  S
N807        N808   1.328       .  A
N807        N813   1.318       .  A
N807       Mn815   2.227       .  S
N808        C816   1.354       .  A
N809        N811   1.314       .  A
N809        N810   1.323       .  A
N809       Mn827   2.210       .  S
N810        C817   1.354       .  A
N811        N812   1.321       .  A
N812        C817   1.351       .  A
N813        N814   1.334       .  A
N814        C816   1.363       .  A
Mn815      Cl828   2.540       .  S
C816        C974   1.484       .  S
C817        C936   1.443       .  S
N818        N819   1.320       .  A
N818        N824   1.320       .  A
N818       Mn826   2.188       .  S
N819        C829   1.349       .  A
N820        N821   1.326       .  A
N820        N822   1.320       .  A
N821        C830   1.356       .  A
N822        N823   1.312       .  A
N823        C830   1.340       .  A
N824        N825   1.318       .  A
N824       Mn827   2.215       .  S
N825        C829   1.348       .  A
C829        C940   1.426       .  S
C830        C952   1.426       .  S
N831        N832   1.318       .  A
N831        N837   1.318       .  A
N831       Mn860   2.214       .  S
N832        C839   1.349       .  A
N833        N835   1.317       .  A
N833       N1818   1.320       .  A
N833       Mn849   2.222       .  S
N834       N1817   1.320       .  A
N834        C840   1.352       .  A
N835       N1820   1.317       .  A
N835       Mn860   2.167       .  S
N836       N1819   1.317       .  A
N836        C840   1.345       .  A
N837        N838   1.320       .  A
N837       Mn849   2.181       .  S
N838        C839   1.348       .  A
C839        C944   1.426       .  S
C840        C961   1.423       .  S
N841        N847   1.314       .  A
N841        N842   1.317       .  A
N841       Mn871   2.177       .  S
N842        C850   1.344       .  A
N843        N844   1.330       .  A
N843        N845   1.315       .  A
N843       Mn849   2.253       .  S
N844        C851   1.361       .  A
N845        N846   1.329       .  A
N845      Mn1855   2.238       .  S
N846        C851   1.359       .  A
N847        N848   1.322       .  A
N847      Mn1833   2.197   1_455  S
N848        C850   1.351       .  A
Mn849      N1831   2.197       .  S
Mn849      Cl873   2.550       .  S
C850        C928   1.429       .  S
C851        C983   1.481       .  S
N852        N853   1.329       .  A
N852        N858   1.315       .  A
N852      Mn1844   2.237   1_455  S
N853        C861   1.359       .  A
N854        N856   1.314       .  A
N854        N855   1.322       .  A
N854      Mn1856   2.197       .  S
N855        C862   1.351       .  A
N856        N857   1.317       .  A
N856       Mn860   2.177       .  S
N857        C862   1.344       .  A
N858        N859   1.330       .  A
N858       Mn872   2.253       .  S
N859        C861   1.360       .  A
Mn860      N1836   2.237       .  S
Mn860      Cl873   2.542       .  S
C861        C971   1.480       .  S
C862        C921   1.429       .  S
N863       N1848   1.317   1_455  A
N863        N869   1.317       .  A
N863       Mn871   2.166       .  S
N864       N1847   1.317       .  A
N864        C874   1.344       .  A
N865        N866   1.320       .  A
N865        N867   1.318       .  A
N865       Mn872   2.181       .  S
N866        C875   1.348       .  A
N867        N868   1.318       .  A
N867       Mn871   2.214       .  S
N868        C875   1.349       .  A
N869       N1854   1.320   1_455  A
N869       Mn872   2.222       .  S
N870       N1853   1.320       .  A
N870        C874   1.352       .  A
Mn871      N1829   2.238   1_455  S
Mn871     Cl1857   2.542       .  S
Mn872      N1838   2.197   1_455  S
Mn872     Cl1857   2.550       .  S
Cl873     Mn1855   2.542       .  S
Cl873     Mn1856   2.550       .  S
C874        C965   1.423       .  S
C875        C937   1.426       .  S
N876        N877   1.332       .  A
N876        N882   1.317       .  A
N876       Mn905   2.253       .  S
N877        C884   1.361       .  A
N878        N880   1.314       .  A
N878        N879   1.321       .  A
N878       Mn894   2.198       .  S
N879        C885   1.351       .  A
N880        N881   1.323       .  A
N881        C885   1.354       .  A
N882        N883   1.329       .  A
N883        C884   1.357       .  A
C884        C982   1.481       .  S
C885        C933   1.443       .  S
N886        N892   1.320       .  A
N886        N887   1.321       .  A
N886       Mn916   2.207       .  S
N887        C895   1.352       .  A
N888        N889   1.322       .  A
N888        N890   1.320       .  A
N889        C896   1.351       .  A
N890        N891   1.315       .  A
N891        C896   1.345       .  A
N892        N893   1.317       .  A
N892       Mn894   2.200       .  S
N893        C895   1.346       .  A
Mn894      Cl918   2.550       .  S
C895        C924   1.427       .  S
C896        C960   1.427       .  S
N897        N898   1.316       .  A
N897        N903   1.320       .  A
N898        C906   1.345       .  A
N899        N901   1.320       .  A
N899        N900   1.317       .  A
N899       Mn917   2.200       .  S
N900        C907   1.346       .  A
N901        N902   1.321       .  A
N901       Mn905   2.206       .  S
N902        C907   1.352       .  A
N903        N904   1.322       .  A
N904        C906   1.351       .  A
C906        C953   1.426       .  S
C907        C925   1.427       .  S
N908        N909   1.323   1_545  A
N908        N914   1.314   1_545  A
N909        C919   1.354       .  A
N910        N911   1.328       .  A
N910        N912   1.317       .  A
N911        C920   1.357       .  A
N912        N913   1.332       .  A
N912       Mn916   2.253       .  S
N913        C920   1.361       .  A
N914        N915   1.321       .  A
N914       Mn917   2.198       .  S
N915        C919   1.351       .  A
Mn916      Cl918   2.555       .  S
C919        C932   1.443       .  S
C920        C970   1.481       .  S
C921        C922   1.202       .  T
C922        C923   1.405       .  S
C923        C924   1.201       .  T
C925        C926   1.201       .  T
C926        C927   1.405       .  S
C927        C928   1.202       .  T
C929        C930   1.210       .  T
C930        C931   1.419       .  S
C931        C932   1.210       .  T
C933        C934   1.210       .  T
C934        C935   1.419       .  S
C935        C936   1.210       .  T
C937        C938   1.199       .  T
C938        C939   1.400       .  S
C939        C940   1.199       .  T
C941        C942   1.199       .  T
C942        C943   1.401       .  S
C943        C944   1.199       .  T
C945        C946   1.202       .  T
C946        C947   1.408       .  S
C947        C948   1.203       .  T
C949        C950   1.202       .  T
C950        C951   1.407       .  S
C951        C952   1.202       .  T
C953        C954   1.200       .  T
C955        C956   1.201       .  T
C957        C958   1.201       .  T
C959        C960   1.200       .  T
C961       C1946   1.198       .  T
C962       C1945   1.198       .  T
C962        C963   1.398       .  S
C963        C964   1.197       .  T
C965        C966   1.197       .  T
C966        C967   1.398       .  S
C967       C1952   1.197       .  T
C968       C1951   1.197       .  T
C969        C970   1.233       .  T
C971        C972   1.232       .  T
C973        C974   1.235       .  T
C975        C976   1.230       .  T
C977        C978   1.230       .  T
C979        C980   1.235       .  T
C981        C982   1.233       .  T
C983        C984   1.233       .  T
C985       C1224   1.508       .  S
C985       C1226   1.518       .  S
C985       C1227   1.514       .  S
C985       C1230   1.513       .  S
C986       C1215   1.513       .  S
C986       C1218   1.512       .  S
C986       C1219   1.517       .  S
C986       C1222   1.508       .  S
N987        N988   1.319       .  A
N987        N993   1.319       .  A
N987      Mn1508   2.217       .  S
N988        C995   1.350       .  A
N989        N990   1.316       .  A
N989      Mn1005   2.202       .  S
N991        N992   1.321       .  A
N991      Mn1016   2.191       .  S
N992        C996   1.350       .  A
C995       C1202   1.427       .  S
C996       C1214   1.422       .  S
N997       N1003   1.314       .  A
N997       N1244   1.324       .  A
N997      Mn1765   2.204   1_545  S
N998       N1243   1.324   1_554  A
N998       C1252   1.355   1_554  A
N999       N1000   1.329       .  A
N999       N1001   1.316       .  A
N999      Mn1497   2.231       .  S
N1000      C1007   1.358       .  A
N1001      N1002   1.330       .  A
N1001     Mn1273   2.251       .  S
N1002      C1007   1.359       .  A
N1003      N1004   1.314       .  A
N1003     Mn1005   2.173       .  S
N1004      C1006   1.342       .  A
Mn1005     N1491   2.231   1_545  S
Mn1005    Cl1029   2.547   1_655  S
C1006      N1244   1.355       .  A
C1006      C1194   1.429       .  S
C1007      C1223   1.476       .  S
N1008      N1009   1.330       .  A
N1008      N1014   1.317       .  A
N1008     Mn1262   2.251   1_554  S
N1009      C1017   1.359       .  A
N1010      N1258   1.314       .  A
N1010      N1011   1.314       .  A
N1010     Mn1028   2.173       .  S
N1011      C1018   1.342       .  A
N1012      N1256   1.314       .  A
N1012      N1013   1.323       .  A
N1012     Mn1508   2.201       .  S
N1013      C1264   1.355       .  A
N1014      N1015   1.329       .  A
N1014     Mn1520   2.231   1_545  S
N1015      C1017   1.358       .  A
Mn1016     N1479   2.217       .  S
Mn1016     N1254   2.251       .  S
Mn1016     N1504   2.201   1_545  S
C1017      C1221   1.477       .  S
C1018      N1259   1.355   1_554  A
C1018      C1195   1.428       .  S
N1019      N1020   1.321       .  A
N1019      N1025   1.319   1_655  A
N1019     Mn1027   2.192       .  S
N1020      C1030   1.351   1_655  A
N1021      N1022   1.319       .  A
N1021      N1023   1.319       .  A
N1022      C1031   1.347       .  A
N1023      N1024   1.319       .  A
N1023     Mn1519   2.217   1_545  S
N1024      C1031   1.350       .  A
Mn1027     N1735   2.204   1_554  S
Mn1027     N1247   2.251   1_554  S
Mn1027     N1515   2.217       .  S
Mn1027    Cl1767   2.552   1_655  S
Mn1028     N1506   2.231       .  S
Cl1029    Mn1765   2.552   1_445  S
C1030      C1210   1.422       .  S
C1031      C1203   1.428       .  S
N1032      N1033   1.312       .  A
N1032      N1038   1.320       .  A
N1032     Mn1307   2.183       .  S
N1033      C1040   1.340       .  A
N1034      N1036   1.320       .  A
N1034      N1035   1.318       .  A
N1034     Mn1050   2.215       .  S
N1035      C1041   1.348       .  A
N1036      N1037   1.320       .  A
N1036     Mn1061   2.188       .  S
N1037      C1041   1.349       .  A
N1038      N1039   1.327       .  A
N1038     Mn1296   2.223       .  S
N1039      C1040   1.357       .  A
C1040      C1191   1.427       .  S
C1041      C1187   1.426       .  S
N1042      N1048   1.314       .  A
N1042      N1043   1.321       .  A
N1042     Mn1318   2.200   1_554  S
N1043      C1051   1.351       .  A
N1044      N1045   1.334       .  A
N1044      N1046   1.318       .  A
N1044     Mn1296   2.266       .  S
N1045      C1052   1.364       .  A
N1046      N1047   1.328       .  A
N1046     Mn1072   2.227       .  S
N1047      C1052   1.354       .  A
N1048      N1049   1.323       .  A
N1048     Mn1050   2.210       .  S
N1049      C1051   1.354       .  A
Mn1050     N1284   2.223       .  S
Mn1050     N1290   2.266   1_554  S
Mn1050    Cl1074   2.572       .  S
C1051      C1175   1.443       .  S
C1052      C1225   1.484       .  S
N1053      N1054   1.328       .  A
N1053      N1059   1.318       .  A
N1053     Mn1061   2.227       .  S
N1054      C1062   1.354       .  A
N1055      N1057   1.314       .  A
N1055      N1056   1.323       .  A
N1055     Mn1073   2.210       .  S
N1056      C1063   1.354       .  A
N1057      N1058   1.321       .  A
N1057     Mn1307   2.200       .  S
N1058      C1063   1.351       .  A
N1059      N1060   1.334       .  A
N1059     Mn1319   2.265   1_554  S
N1060      C1062   1.363       .  A
Mn1061     N1278   2.183       .  S
Mn1061     N1303   2.200   1_554  S
Mn1061    Cl1074   2.540       .  S
C1062      C1220   1.484       .  S
C1063      C1182   1.443       .  S
N1064      N1065   1.320       .  A
N1064      N1070   1.320       .  A
N1064     Mn1072   2.188       .  S
N1065      C1075   1.349       .  A
N1066      N1067   1.326   1_556  A
N1066      N1068   1.320       .  A
N1066     Mn1319   2.221       .  S
N1067      C1076   1.356       .  A
N1068      N1069   1.312       .  A
N1068     Mn1318   2.183       .  S
N1069      C1076   1.340   1_556  A
N1070      N1071   1.318       .  A
N1070     Mn1073   2.215       .  S
N1071      C1075   1.348       .  A
Mn1072     N1288   2.200       .  S
Mn1072     N1314   2.183       .  S
Mn1072    Cl1320   2.540       .  S
Mn1073     N1305   2.265       .  S
Mn1073     N1312   2.221       .  S
Mn1073    Cl1320   2.572       .  S
Cl1074    Mn1318   2.540   1_554  S
Cl1074    Mn1319   2.572   1_554  S
C1075      C1186   1.426       .  S
C1076      C1198   1.426       .  S
N1077      N1078   1.318       .  A
N1077      N1083   1.318       .  A
N1077     Mn1106   2.214       .  S
N1078      C1085   1.349       .  A
N1079      N1081   1.317       .  A
N1079     Mn1095   2.222   1_455  S
N1080      C1086   1.352       .  A
N1081     Mn1106   2.167   1_455  S
N1082      C1086   1.345       .  A
N1083      N1084   1.320       .  A
N1083     Mn1095   2.181       .  S
N1084      C1085   1.348       .  A
C1085      C1190   1.426       .  S
C1086      C1207   1.423       .  S
N1087      N1093   1.314       .  A
N1087      N1088   1.317       .  A
N1087     Mn1117   2.177       .  S
N1088      C1096   1.344       .  A
N1089      N1090   1.330       .  A
N1089      N1091   1.315       .  A
N1089     Mn1095   2.253       .  S
N1090      C1097   1.361       .  A
N1091      N1092   1.329       .  A
N1092      C1097   1.359       .  A
N1093      N1094   1.322       .  A
N1094      C1096   1.351       .  A
Mn1095    Cl1119   2.550   1_655  S
C1096      C1174   1.429       .  S
C1097      C1229   1.481       .  S
N1098      N1099   1.329       .  A
N1098      N1104   1.315       .  A
N1099      C1107   1.359       .  A
N1100      N1102   1.314       .  A
N1100      N1101   1.322       .  A
N1101      C1108   1.351       .  A
N1102      N1103   1.317       .  A
N1102     Mn1106   2.177       .  S
N1103      C1108   1.344       .  A
N1104      N1105   1.330       .  A
N1104     Mn1118   2.253       .  S
N1105      C1107   1.360       .  A
Mn1106    Cl1119   2.542   1_655  S
C1107      C1217   1.480       .  S
C1108      C1167   1.429       .  S
N1109      N1115   1.317       .  A
N1109     Mn1117   2.166       .  S
N1110      C1120   1.344       .  A
N1111      N1112   1.320       .  A
N1111      N1113   1.318       .  A
N1111     Mn1118   2.181       .  S
N1112      C1121   1.348       .  A
N1113      N1114   1.318       .  A
N1113     Mn1117   2.214       .  S
N1114      C1121   1.349       .  A
N1115     Mn1118   2.222       .  S
N1116      C1120   1.352       .  A
C1120      C1211   1.423       .  S
C1121      C1183   1.426       .  S
N1122      N1123   1.332       .  A
N1122      N1128   1.317       .  A
N1122     Mn1151   2.253       .  S
N1123      C1130   1.361       .  A
N1124      N1126   1.314       .  A
N1124      N1125   1.321       .  A
N1124     Mn1140   2.198       .  S
N1125      C1131   1.351       .  A
N1126      N1127   1.323       .  A
N1126     Mn1643   2.209   1_545  S
N1127      C1131   1.354       .  A
N1128      N1129   1.329       .  A
N1128     Mn1632   2.240       .  S
N1129      C1130   1.357       .  A
C1130      C1228   1.481       .  S
C1131      C1179   1.443       .  S
N1132      N1138   1.320       .  A
N1132      N1133   1.321       .  A
N1132     Mn1162   2.207       .  S
N1133      C1141   1.352       .  A
N1134      N1135   1.322       .  A
N1134      N1136   1.320       .  A
N1134     Mn1632   2.199       .  S
N1135      C1142   1.351       .  A
N1136      N1137   1.315       .  A
N1136     Mn1654   2.202       .  S
N1137      C1142   1.345       .  A
N1138      N1139   1.317       .  A
N1138     Mn1140   2.200       .  S
N1139      C1141   1.346       .  A
Mn1140     N1620   2.240   1_545  S
Mn1140     N1626   2.199       .  S
Mn1140    Cl1164   2.550       .  S
C1141      C1170   1.427       .  S
C1142      C1206   1.427       .  S
N1143      N1144   1.316       .  A
N1143      N1149   1.320   1_565  A
N1143     Mn1643   2.203       .  S
N1144      C1152   1.345   1_565  A
N1145      N1147   1.320       .  A
N1145      N1146   1.317       .  A
N1145     Mn1163   2.200       .  S
N1146      C1153   1.346       .  A
N1147      N1148   1.321       .  A
N1147     Mn1151   2.206       .  S
N1148      C1153   1.352       .  A
N1149      N1150   1.322       .  A
N1149     Mn1655   2.198   1_545  S
N1150      C1152   1.351       .  A
Mn1151     N1618   2.209       .  S
Mn1151     N1635   2.203       .  S
Mn1151    Cl1656   2.555       .  S
C1152      C1199   1.426       .  S
C1153      C1171   1.427       .  S
N1154      N1155   1.323       .  A
N1154      N1160   1.314       .  A
N1154     Mn1654   2.210       .  S
N1155      C1165   1.354       .  A
N1156      N1157   1.328       .  A
N1156      N1158   1.317       .  A
N1156     Mn1655   2.238   1_545  S
N1157      C1166   1.357       .  A
N1158      N1159   1.332       .  A
N1158     Mn1162   2.253       .  S
N1159      C1166   1.361       .  A
N1160      N1161   1.321       .  A
N1160     Mn1163   2.198       .  S
N1161      C1165   1.351       .  A
Mn1162     N1628   2.202       .  S
Mn1162     N1646   2.210       .  S
Mn1162    Cl1164   2.555       .  S
Mn1163     N1641   2.198       .  S
Mn1163     N1648   2.238       .  S
Mn1163    Cl1656   2.550       .  S
Cl1164    Mn1643   2.555   1_545  S
Cl1164    Mn1655   2.550   1_545  S
C1165      C1178   1.443       .  S
C1166      C1216   1.481       .  S
C1167      C1168   1.202       .  T
C1168      C1169   1.405       .  S
C1169      C1170   1.201       .  T
C1171      C1172   1.201       .  T
C1172      C1173   1.405       .  S
C1173      C1174   1.202       .  T
C1175      C1176   1.210       .  T
C1176      C1177   1.419       .  S
C1177      C1178   1.210       .  T
C1179      C1180   1.210       .  T
C1180      C1181   1.419       .  S
C1181      C1182   1.210       .  T
C1183      C1184   1.199       .  T
C1184      C1185   1.400       .  S
C1185      C1186   1.199       .  T
C1187      C1188   1.199       .  T
C1188      C1189   1.401       .  S
C1189      C1190   1.199       .  T
C1191      C1192   1.202       .  T
C1192      C1193   1.408       .  S
C1193      C1194   1.203       .  T
C1195      C1196   1.202       .  T
C1196      C1197   1.407       .  S
C1197      C1198   1.202       .  T
C1199      C1200   1.200       .  T
C1200      C1693   1.404   1_545  S
C1201      C1202   1.201       .  T
C1201      C1692   1.404       .  S
C1203      C1204   1.201       .  T
C1204      C1697   1.404       .  S
C1205      C1206   1.200       .  T
C1205      C1696   1.404       .  S
C1208      C1209   1.398       .  S
C1209      C1210   1.197       .  T
C1211      C1212   1.197       .  T
C1212      C1213   1.398       .  S
C1215      C1216   1.233       .  T
C1217      C1218   1.232       .  T
C1219      C1220   1.235       .  T
C1221      C1222   1.230       .  T
C1223      C1224   1.230       .  T
C1225      C1226   1.235       .  T
C1227      C1228   1.233       .  T
C1229      C1230   1.233       .  T
C1231      C1470   1.508       .  S
C1231      C1472   1.518       .  S
C1231      C1473   1.514       .  S
C1231      C1476   1.513       .  S
C1232      C1461   1.513       .  S
C1232      C1464   1.512       .  S
C1232      C1465   1.517       .  S
C1232      C1468   1.508       .  S
N1233      N1234   1.319       .  A
N1233      N1239   1.319       .  A
N1233     Mn1754   2.217       .  S
N1234      C1241   1.350       .  A
N1235      N1236   1.316       .  A
N1235     Mn1251   2.202       .  S
N1237      N1238   1.321       .  A
N1237     Mn1262   2.191       .  S
N1238      C1242   1.350       .  A
C1241      C1448   1.427       .  S
C1242      C1460   1.422       .  S
N1243      N1249   1.314       .  A
N1243     Mn1519   2.204   1_546  S
N1245      N1246   1.329       .  A
N1245      N1247   1.316       .  A
N1245     Mn1743   2.231       .  S
N1246      C1253   1.358       .  A
N1247      N1248   1.330       .  A
N1248      C1253   1.359       .  A
N1249      N1250   1.314       .  A
N1249     Mn1251   2.173       .  S
N1250      C1252   1.342       .  A
Mn1251     N1737   2.231   1_545  S
Mn1251    Cl1275   2.547   1_656  S
C1252      C1440   1.429       .  S
C1253      C1469   1.476       .  S
N1254      N1255   1.330       .  A
N1254      N1260   1.317       .  A
N1255      C1263   1.359       .  A
N1256      N1257   1.314       .  A
N1256     Mn1274   2.173       .  S
N1257      C1264   1.342       .  A
N1258      N1259   1.323   1_554  A
N1258     Mn1754   2.201   1_554  S
N1260      N1261   1.329       .  A
N1260     Mn1766   2.231   1_545  S
N1261      C1263   1.358       .  A
Mn1262     N1725   2.217       .  S
Mn1262     N1750   2.201   1_546  S
C1263      C1467   1.477       .  S
C1264      C1441   1.428       .  S
N1265      N1266   1.321       .  A
N1265      N1271   1.319   1_655  A
N1265     Mn1273   2.192       .  S
N1266      C1276   1.351   1_655  A
N1267      N1268   1.319       .  A
N1267      N1269   1.319       .  A
N1268      C1277   1.347       .  A
N1269      N1270   1.319       .  A
N1269     Mn1765   2.217   1_545  S
N1270      C1277   1.350       .  A
Mn1273     N1489   2.204       .  S
Mn1273     N1761   2.217       .  S
Mn1273    Cl1521   2.552   1_655  S
Mn1274     N1752   2.231       .  S
Cl1275    Mn1519   2.552   1_445  S
C1276      C1456   1.422       .  S
C1277      C1449   1.428       .  S
N1278      N1279   1.312       .  A
N1278      N1284   1.320       .  A
N1279      C1286   1.340       .  A
N1280      N1282   1.320       .  A
N1280      N1281   1.318       .  A
N1280     Mn1296   2.215       .  S
N1281      C1287   1.348       .  A
N1282      N1283   1.320       .  A
N1282     Mn1307   2.188       .  S
N1283      C1287   1.349       .  A
N1284      N1285   1.327       .  A
N1285      C1286   1.357       .  A
C1286      C1437   1.427   1_554  S
C1287      C1433   1.426       .  S
N1288      N1294   1.314       .  A
N1288      N1289   1.321       .  A
N1289      C1297   1.351       .  A
N1290      N1291   1.334       .  A
N1290      N1292   1.318       .  A
N1291      C1298   1.364       .  A
N1292      N1293   1.328       .  A
N1292     Mn1318   2.227       .  S
N1293      C1298   1.354       .  A
N1294      N1295   1.323       .  A
N1294     Mn1296   2.210       .  S
N1295      C1297   1.354       .  A
Mn1296    Cl1320   2.572       .  S
C1297      C1421   1.443       .  S
C1298      C1471   1.484       .  S
N1299      N1300   1.328       .  A
N1299      N1305   1.318       .  A
N1299     Mn1307   2.227       .  S
N1300      C1308   1.354       .  A
N1301      N1303   1.314       .  A
N1301      N1302   1.323       .  A
N1301     Mn1319   2.210       .  S
N1302      C1309   1.354       .  A
N1303      N1304   1.321       .  A
N1304      C1309   1.351       .  A
N1305      N1306   1.334       .  A
N1306      C1308   1.363       .  A
Mn1307    Cl1320   2.540       .  S
C1308      C1466   1.484       .  S
C1309      C1428   1.443       .  S
N1310      N1311   1.320       .  A
N1310      N1316   1.320       .  A
N1310     Mn1318   2.188       .  S
N1311      C1321   1.349       .  A
N1312      N1313   1.326       .  A
N1312      N1314   1.320       .  A
N1313      C1322   1.356       .  A
N1314      N1315   1.312       .  A
N1315      C1322   1.340       .  A
N1316      N1317   1.318       .  A
N1316     Mn1319   2.215       .  S
N1317      C1321   1.348       .  A
C1321      C1432   1.426       .  S
C1322      C1444   1.426       .  S
N1323      N1324   1.318       .  A
N1323      N1329   1.318       .  A
N1323     Mn1352   2.214       .  S
N1324      C1331   1.349       .  A
N1325      N1327   1.317       .  A
N1325     Mn1341   2.222   1_455  S
N1326      C1332   1.352       .  A
N1327     Mn1352   2.167   1_455  S
N1328      C1332   1.345       .  A
N1329      N1330   1.320       .  A
N1329     Mn1341   2.181       .  S
N1330      C1331   1.348       .  A
C1331      C1436   1.426       .  S
C1332      C1453   1.423       .  S
N1333      N1339   1.314       .  A
N1333      N1334   1.317       .  A
N1333     Mn1363   2.177       .  S
N1334      C1342   1.344       .  A
N1335      N1336   1.330       .  A
N1335      N1337   1.315       .  A
N1335     Mn1341   2.253       .  S
N1336      C1343   1.361       .  A
N1337      N1338   1.329       .  A
N1338      C1343   1.359       .  A
N1339      N1340   1.322       .  A
N1340      C1342   1.351       .  A
Mn1341    Cl1365   2.550   1_655  S
C1342      C1420   1.429       .  S
C1343      C1475   1.481       .  S
N1344      N1345   1.329       .  A
N1344      N1350   1.315       .  A
N1345      C1353   1.359       .  A
N1346      N1348   1.314       .  A
N1346      N1347   1.322       .  A
N1347      C1354   1.351       .  A
N1348      N1349   1.317       .  A
N1348     Mn1352   2.177       .  S
N1349      C1354   1.344       .  A
N1350      N1351   1.330       .  A
N1350     Mn1364   2.253       .  S
N1351      C1353   1.360       .  A
Mn1352    Cl1365   2.542   1_655  S
C1353      C1463   1.480       .  S
C1354      C1413   1.429       .  S
N1355      N1361   1.317       .  A
N1355     Mn1363   2.166       .  S
N1356      C1366   1.344       .  A
N1357      N1358   1.320       .  A
N1357      N1359   1.318       .  A
N1357     Mn1364   2.181       .  S
N1358      C1367   1.348       .  A
N1359      N1360   1.318       .  A
N1359     Mn1363   2.214       .  S
N1360      C1367   1.349       .  A
N1361     Mn1364   2.222       .  S
N1362      C1366   1.352       .  A
C1366      C1457   1.423       .  S
C1367      C1429   1.426       .  S
N1368      N1369   1.332       .  A
N1368      N1374   1.317       .  A
N1368     Mn1397   2.253       .  S
N1369      C1376   1.361       .  A
N1370      N1372   1.314       .  A
N1370      N1371   1.321       .  A
N1370     Mn1386   2.198       .  S
N1371      C1377   1.351       .  A
N1372      N1373   1.323       .  A
N1372     Mn1889   2.209   1_545  S
N1373      C1377   1.354       .  A
N1374      N1375   1.329       .  A
N1374     Mn1878   2.240       .  S
N1375      C1376   1.357       .  A
C1376      C1474   1.481       .  S
C1377      C1425   1.443       .  S
N1378      N1384   1.320       .  A
N1378      N1379   1.321       .  A
N1378     Mn1408   2.207       .  S
N1379      C1387   1.352       .  A
N1380      N1381   1.322       .  A
N1380      N1382   1.320       .  A
N1380     Mn1878   2.199       .  S
N1381      C1388   1.351       .  A
N1382      N1383   1.315       .  A
N1382     Mn1900   2.202       .  S
N1383      C1388   1.345       .  A
N1384      N1385   1.317       .  A
N1384     Mn1386   2.200       .  S
N1385      C1387   1.346       .  A
Mn1386     N1866   2.240   1_545  S
Mn1386     N1872   2.199       .  S
Mn1386    Cl1410   2.550       .  S
C1387      C1416   1.427       .  S
C1388      C1452   1.427       .  S
N1389      N1390   1.316       .  A
N1389      N1395   1.320   1_565  A
N1389     Mn1889   2.203       .  S
N1390      C1398   1.345   1_565  A
N1391      N1393   1.320       .  A
N1391      N1392   1.317       .  A
N1391     Mn1409   2.200       .  S
N1392      C1399   1.346       .  A
N1393      N1394   1.321       .  A
N1393     Mn1397   2.206       .  S
N1394      C1399   1.352       .  A
N1395      N1396   1.322       .  A
N1395     Mn1901   2.198   1_545  S
N1396      C1398   1.351       .  A
Mn1397     N1864   2.209       .  S
Mn1397     N1881   2.203       .  S
Mn1397    Cl1902   2.555       .  S
C1398      C1445   1.426       .  S
C1399      C1417   1.427       .  S
N1400      N1401   1.323       .  A
N1400      N1406   1.314       .  A
N1400     Mn1900   2.210       .  S
N1401      C1411   1.354       .  A
N1402      N1403   1.328       .  A
N1402      N1404   1.317       .  A
N1402     Mn1901   2.238   1_545  S
N1403      C1412   1.357       .  A
N1404      N1405   1.332       .  A
N1404     Mn1408   2.253       .  S
N1405      C1412   1.361       .  A
N1406      N1407   1.321       .  A
N1406     Mn1409   2.198       .  S
N1407      C1411   1.351       .  A
Mn1408     N1874   2.202       .  S
Mn1408     N1892   2.210       .  S
Mn1408    Cl1410   2.555       .  S
Mn1409     N1887   2.198       .  S
Mn1409     N1894   2.238       .  S
Mn1409    Cl1902   2.550       .  S
Cl1410    Mn1889   2.555   1_545  S
Cl1410    Mn1901   2.550   1_545  S
C1411      C1424   1.443       .  S
C1412      C1462   1.481       .  S
C1413      C1414   1.202       .  T
C1414      C1415   1.405       .  S
C1415      C1416   1.201       .  T
C1417      C1418   1.201       .  T
C1418      C1419   1.405       .  S
C1419      C1420   1.202       .  T
C1421      C1422   1.210       .  T
C1422      C1423   1.419       .  S
C1423      C1424   1.210       .  T
C1425      C1426   1.210       .  T
C1426      C1427   1.419       .  S
C1427      C1428   1.210       .  T
C1429      C1430   1.199       .  T
C1430      C1431   1.400       .  S
C1431      C1432   1.199       .  T
C1433      C1434   1.199       .  T
C1434      C1435   1.401       .  S
C1435      C1436   1.199       .  T
C1437      C1438   1.202       .  T
C1438      C1439   1.408       .  S
C1439      C1440   1.203       .  T
C1441      C1442   1.202       .  T
C1442      C1443   1.407       .  S
C1443      C1444   1.202       .  T
C1445      C1446   1.200       .  T
C1446      C1939   1.404   1_545  S
C1447      C1448   1.201       .  T
C1447      C1938   1.404       .  S
C1449      C1450   1.201       .  T
C1450      C1943   1.404       .  S
C1451      C1452   1.200       .  T
C1451      C1942   1.404       .  S
C1454      C1455   1.398       .  S
C1455      C1456   1.197       .  T
C1457      C1458   1.197       .  T
C1458      C1459   1.398       .  S
C1461      C1462   1.233       .  T
C1463      C1464   1.232       .  T
C1465      C1466   1.235       .  T
C1467      C1468   1.230       .  T
C1469      C1470   1.230       .  T
C1471      C1472   1.235       .  T
C1473      C1474   1.233       .  T
C1475      C1476   1.233       .  T
C1477      C1716   1.508       .  S
C1477      C1718   1.518       .  S
C1477      C1719   1.514       .  S
C1477      C1722   1.513       .  S
C1478      C1707   1.513       .  S
C1478      C1710   1.512       .  S
C1478      C1711   1.517       .  S
C1478      C1714   1.508       .  S
N1479      N1480   1.319       .  A
N1479      N1485   1.319       .  A
N1480      C1487   1.350   1_545  A
N1481      N1482   1.316       .  A
N1481     Mn1497   2.202       .  S
N1483      N1484   1.321       .  A
N1483     Mn1508   2.191       .  S
N1484      C1488   1.350       .  A
C1487      C1694   1.427       .  S
C1488      C1706   1.422       .  S
N1489      N1495   1.314       .  A
N1489      N1736   1.324       .  A
N1490      N1735   1.324   1_554  A
N1490      C1744   1.355   1_554  A
N1491      N1492   1.329       .  A
N1491      N1493   1.316       .  A
N1492      C1499   1.358       .  A
N1493      N1494   1.330       .  A
N1493     Mn1765   2.251       .  S
N1494      C1499   1.359       .  A
N1495      N1496   1.314       .  A
N1495     Mn1497   2.173       .  S
N1496      C1498   1.342       .  A
Mn1497    Cl1521   2.547   1_655  S
C1498      N1736   1.355       .  A
C1498      C1686   1.429       .  S
C1499      C1715   1.476       .  S
N1500      N1501   1.330       .  A
N1500      N1506   1.317       .  A
N1500     Mn1754   2.251   1_554  S
N1501      C1509   1.359       .  A
N1502      N1750   1.314       .  A
N1502      N1503   1.314       .  A
N1502     Mn1520   2.173       .  S
N1503      C1510   1.342       .  A
N1504      N1748   1.314       .  A
N1504      N1505   1.323       .  A
N1505      C1756   1.355       .  A
N1506      N1507   1.329       .  A
N1507      C1509   1.358       .  A
Mn1508     N1746   2.251       .  S
C1509      C1713   1.477       .  S
C1510      N1751   1.355   1_554  A
C1510      C1687   1.428       .  S
N1511      N1512   1.321       .  A
N1511      N1517   1.319   1_655  A
N1511     Mn1519   2.192       .  S
N1512      C1522   1.351   1_655  A
N1513      N1514   1.319       .  A
N1513      N1515   1.319       .  A
N1514      C1523   1.347       .  A
N1515      N1516   1.319       .  A
N1516      C1523   1.350       .  A
Mn1519     N1739   2.251   1_554  S
C1522      C1702   1.422       .  S
C1523      C1695   1.428       .  S
N1524      N1525   1.312       .  A
N1524      N1530   1.320       .  A
N1524     Mn1799   2.183       .  S
N1525      C1532   1.340       .  A
N1526      N1528   1.320       .  A
N1526      N1527   1.318       .  A
N1526     Mn1542   2.215       .  S
N1527      C1533   1.348       .  A
N1528      N1529   1.320       .  A
N1528     Mn1553   2.188       .  S
N1529      C1533   1.349       .  A
N1530      N1531   1.327       .  A
N1530     Mn1788   2.223       .  S
N1531      C1532   1.357       .  A
C1532      C1683   1.427       .  S
C1533      C1679   1.426       .  S
N1534      N1540   1.314       .  A
N1534      N1535   1.321       .  A
N1534     Mn1810   2.200   1_554  S
N1535      C1543   1.351       .  A
N1536      N1537   1.334       .  A
N1536      N1538   1.318       .  A
N1536     Mn1788   2.266       .  S
N1537      C1544   1.364       .  A
N1538      N1539   1.328       .  A
N1538     Mn1564   2.227       .  S
N1539      C1544   1.354       .  A
N1540      N1541   1.323       .  A
N1540     Mn1542   2.210       .  S
N1541      C1543   1.354       .  A
Mn1542     N1776   2.223       .  S
Mn1542     N1782   2.266   1_554  S
Mn1542    Cl1566   2.572       .  S
C1543      C1667   1.443       .  S
C1544      C1717   1.484       .  S
N1545      N1546   1.328       .  A
N1545      N1551   1.318       .  A
N1545     Mn1553   2.227       .  S
N1546      C1554   1.354       .  A
N1547      N1549   1.314       .  A
N1547      N1548   1.323       .  A
N1547     Mn1565   2.210       .  S
N1548      C1555   1.354       .  A
N1549      N1550   1.321       .  A
N1549     Mn1799   2.200       .  S
N1550      C1555   1.351       .  A
N1551      N1552   1.334       .  A
N1551     Mn1811   2.265   1_554  S
N1552      C1554   1.363       .  A
Mn1553     N1770   2.183       .  S
Mn1553     N1795   2.200   1_554  S
Mn1553    Cl1566   2.540       .  S
C1554      C1712   1.484       .  S
C1555      C1674   1.443       .  S
N1556      N1557   1.320       .  A
N1556      N1562   1.320       .  A
N1556     Mn1564   2.188       .  S
N1557      C1567   1.349       .  A
N1558      N1559   1.326   1_556  A
N1558      N1560   1.320       .  A
N1558     Mn1811   2.221       .  S
N1559      C1568   1.356       .  A
N1560      N1561   1.312       .  A
N1560     Mn1810   2.183       .  S
N1561      C1568   1.340   1_556  A
N1562      N1563   1.318       .  A
N1562     Mn1565   2.215       .  S
N1563      C1567   1.348       .  A
Mn1564     N1780   2.200       .  S
Mn1564     N1806   2.183       .  S
Mn1564    Cl1812   2.540       .  S
Mn1565     N1797   2.265       .  S
Mn1565     N1804   2.221       .  S
Mn1565    Cl1812   2.572       .  S
Cl1566    Mn1810   2.540   1_554  S
Cl1566    Mn1811   2.572   1_554  S
C1567      C1678   1.426       .  S
C1568      C1690   1.426       .  S
N1569      N1570   1.318       .  A
N1569      N1575   1.318       .  A
N1569     Mn1598   2.214       .  S
N1570      C1577   1.349       .  A
N1571      N1573   1.317       .  A
N1571     Mn1587   2.222   1_455  S
N1572      C1578   1.352       .  A
N1573     Mn1598   2.167   1_455  S
N1574      C1578   1.345       .  A
N1575      N1576   1.320       .  A
N1575     Mn1587   2.181       .  S
N1576      C1577   1.348       .  A
C1577      C1682   1.426       .  S
C1578      C1699   1.423       .  S
N1579      N1585   1.314       .  A
N1579      N1580   1.317       .  A
N1579     Mn1609   2.177       .  S
N1580      C1588   1.344       .  A
N1581      N1582   1.330       .  A
N1581      N1583   1.315       .  A
N1581     Mn1587   2.253       .  S
N1582      C1589   1.361       .  A
N1583      N1584   1.329       .  A
N1584      C1589   1.359       .  A
N1585      N1586   1.322       .  A
N1586      C1588   1.351       .  A
Mn1587    Cl1611   2.550   1_655  S
C1588      C1666   1.429       .  S
C1589      C1721   1.481       .  S
N1590      N1591   1.329       .  A
N1590      N1596   1.315       .  A
N1591      C1599   1.359       .  A
N1592      N1594   1.314       .  A
N1592      N1593   1.322       .  A
N1593      C1600   1.351       .  A
N1594      N1595   1.317       .  A
N1594     Mn1598   2.177       .  S
N1595      C1600   1.344       .  A
N1596      N1597   1.330       .  A
N1596     Mn1610   2.253       .  S
N1597      C1599   1.360       .  A
Mn1598    Cl1611   2.542   1_655  S
C1599      C1709   1.480       .  S
C1600      C1659   1.429       .  S
N1601      N1607   1.317       .  A
N1601     Mn1609   2.166       .  S
N1602      C1612   1.344       .  A
N1603      N1604   1.320       .  A
N1603      N1605   1.318       .  A
N1603     Mn1610   2.181       .  S
N1604      C1613   1.348       .  A
N1605      N1606   1.318       .  A
N1605     Mn1609   2.214       .  S
N1606      C1613   1.349       .  A
N1607     Mn1610   2.222       .  S
N1608      C1612   1.352       .  A
C1612      C1703   1.423       .  S
C1613      C1675   1.426       .  S
N1614      N1615   1.332       .  A
N1614      N1620   1.317       .  A
N1614     Mn1643   2.253       .  S
N1615      C1622   1.361       .  A
N1616      N1618   1.314       .  A
N1616      N1617   1.321       .  A
N1616     Mn1632   2.198       .  S
N1617      C1623   1.351       .  A
N1618      N1619   1.323       .  A
N1619      C1623   1.354       .  A
N1620      N1621   1.329       .  A
N1621      C1622   1.357       .  A
C1622      C1720   1.481       .  S
C1623      C1671   1.443       .  S
N1624      N1630   1.320       .  A
N1624      N1625   1.321       .  A
N1624     Mn1654   2.207       .  S
N1625      C1633   1.352       .  A
N1626      N1627   1.322       .  A
N1626      N1628   1.320       .  A
N1627      C1634   1.351       .  A
N1628      N1629   1.315       .  A
N1629      C1634   1.345       .  A
N1630      N1631   1.317       .  A
N1630     Mn1632   2.200       .  S
N1631      C1633   1.346       .  A
Mn1632    Cl1656   2.550       .  S
C1633      C1662   1.427       .  S
C1634      C1698   1.427       .  S
N1635      N1636   1.316       .  A
N1635      N1641   1.320       .  A
N1636      C1644   1.345       .  A
N1637      N1639   1.320       .  A
N1637      N1638   1.317       .  A
N1637     Mn1655   2.200       .  S
N1638      C1645   1.346       .  A
N1639      N1640   1.321       .  A
N1639     Mn1643   2.206       .  S
N1640      C1645   1.352       .  A
N1641      N1642   1.322       .  A
N1642      C1644   1.351       .  A
C1644      C1691   1.426       .  S
C1645      C1663   1.427       .  S
N1646      N1647   1.323   1_545  A
N1646      N1652   1.314   1_545  A
N1647      C1657   1.354       .  A
N1648      N1649   1.328       .  A
N1648      N1650   1.317       .  A
N1649      C1658   1.357       .  A
N1650      N1651   1.332       .  A
N1650     Mn1654   2.253       .  S
N1651      C1658   1.361       .  A
N1652      N1653   1.321       .  A
N1652     Mn1655   2.198       .  S
N1653      C1657   1.351       .  A
Mn1654    Cl1656   2.555       .  S
C1657      C1670   1.443       .  S
C1658      C1708   1.481       .  S
C1659      C1660   1.202       .  T
C1660      C1661   1.405       .  S
C1661      C1662   1.201       .  T
C1663      C1664   1.201       .  T
C1664      C1665   1.405       .  S
C1665      C1666   1.202       .  T
C1667      C1668   1.210       .  T
C1668      C1669   1.419       .  S
C1669      C1670   1.210       .  T
C1671      C1672   1.210       .  T
C1672      C1673   1.419       .  S
C1673      C1674   1.210       .  T
C1675      C1676   1.199       .  T
C1676      C1677   1.400       .  S
C1677      C1678   1.199       .  T
C1679      C1680   1.199       .  T
C1680      C1681   1.401       .  S
C1681      C1682   1.199       .  T
C1683      C1684   1.202       .  T
C1684      C1685   1.408       .  S
C1685      C1686   1.203       .  T
C1687      C1688   1.202       .  T
C1688      C1689   1.407       .  S
C1689      C1690   1.202       .  T
C1691      C1692   1.200       .  T
C1693      C1694   1.201       .  T
C1695      C1696   1.201       .  T
C1697      C1698   1.200       .  T
C1700      C1701   1.398       .  S
C1701      C1702   1.197       .  T
C1703      C1704   1.197       .  T
C1704      C1705   1.398       .  S
C1707      C1708   1.233       .  T
C1709      C1710   1.232       .  T
C1711      C1712   1.235       .  T
C1713      C1714   1.230       .  T
C1715      C1716   1.230       .  T
C1717      C1718   1.235       .  T
C1719      C1720   1.233       .  T
C1721      C1722   1.233       .  T
C1723      C1962   1.508       .  S
C1723      C1964   1.518       .  S
C1723      C1965   1.514       .  S
C1723      C1968   1.513       .  S
C1724      C1953   1.513       .  S
C1724      C1956   1.512       .  S
C1724      C1957   1.517       .  S
C1724      C1960   1.508       .  S
N1725      N1726   1.319       .  A
N1725      N1731   1.319       .  A
N1726      C1733   1.350   1_545  A
N1727      N1728   1.316       .  A
N1727     Mn1743   2.202       .  S
N1729      N1730   1.321       .  A
N1729     Mn1754   2.191       .  S
N1730      C1734   1.350       .  A
C1733      C1940   1.427       .  S
C1734      C1952   1.422       .  S
N1735      N1741   1.314       .  A
N1737      N1738   1.329       .  A
N1737      N1739   1.316       .  A
N1738      C1745   1.358       .  A
N1739      N1740   1.330       .  A
N1740      C1745   1.359       .  A
N1741      N1742   1.314       .  A
N1741     Mn1743   2.173       .  S
N1742      C1744   1.342       .  A
Mn1743    Cl1767   2.547   1_656  S
C1744      C1932   1.429       .  S
C1745      C1961   1.476       .  S
N1746      N1747   1.330       .  A
N1746      N1752   1.317       .  A
N1747      C1755   1.359       .  A
N1748      N1749   1.314       .  A
N1748     Mn1766   2.173       .  S
N1749      C1756   1.342       .  A
N1750      N1751   1.323   1_554  A
N1752      N1753   1.329       .  A
N1753      C1755   1.358       .  A
C1755      C1959   1.477       .  S
C1756      C1933   1.428       .  S
N1757      N1758   1.321       .  A
N1757      N1763   1.319   1_655  A
N1757     Mn1765   2.192       .  S
N1758      C1768   1.351   1_655  A
N1759      N1760   1.319       .  A
N1759      N1761   1.319       .  A
N1760      C1769   1.347       .  A
N1761      N1762   1.319       .  A
N1762      C1769   1.350       .  A
C1768      C1948   1.422       .  S
C1769      C1941   1.428       .  S
N1770      N1771   1.312       .  A
N1770      N1776   1.320       .  A
N1771      C1778   1.340       .  A
N1772      N1774   1.320       .  A
N1772      N1773   1.318       .  A
N1772     Mn1788   2.215       .  S
N1773      C1779   1.348       .  A
N1774      N1775   1.320       .  A
N1774     Mn1799   2.188       .  S
N1775      C1779   1.349       .  A
N1776      N1777   1.327       .  A
N1777      C1778   1.357       .  A
C1778      C1929   1.427   1_554  S
C1779      C1925   1.426       .  S
N1780      N1786   1.314       .  A
N1780      N1781   1.321       .  A
N1781      C1789   1.351       .  A
N1782      N1783   1.334       .  A
N1782      N1784   1.318       .  A
N1783      C1790   1.364       .  A
N1784      N1785   1.328       .  A
N1784     Mn1810   2.227       .  S
N1785      C1790   1.354       .  A
N1786      N1787   1.323       .  A
N1786     Mn1788   2.210       .  S
N1787      C1789   1.354       .  A
Mn1788    Cl1812   2.572       .  S
C1789      C1913   1.443       .  S
C1790      C1963   1.484       .  S
N1791      N1792   1.328       .  A
N1791      N1797   1.318       .  A
N1791     Mn1799   2.227       .  S
N1792      C1800   1.354       .  A
N1793      N1795   1.314       .  A
N1793      N1794   1.323       .  A
N1793     Mn1811   2.210       .  S
N1794      C1801   1.354       .  A
N1795      N1796   1.321       .  A
N1796      C1801   1.351       .  A
N1797      N1798   1.334       .  A
N1798      C1800   1.363       .  A
Mn1799    Cl1812   2.540       .  S
C1800      C1958   1.484       .  S
C1801      C1920   1.443       .  S
N1802      N1803   1.320       .  A
N1802      N1808   1.320       .  A
N1802     Mn1810   2.188       .  S
N1803      C1813   1.349       .  A
N1804      N1805   1.326       .  A
N1804      N1806   1.320       .  A
N1805      C1814   1.356       .  A
N1806      N1807   1.312       .  A
N1807      C1814   1.340       .  A
N1808      N1809   1.318       .  A
N1808     Mn1811   2.215       .  S
N1809      C1813   1.348       .  A
C1813      C1924   1.426       .  S
C1814      C1936   1.426       .  S
N1815      N1816   1.318       .  A
N1815      N1821   1.318       .  A
N1815     Mn1844   2.214       .  S
N1816      C1823   1.349       .  A
N1817      N1819   1.317       .  A
N1817     Mn1833   2.222   1_455  S
N1818      C1824   1.352       .  A
N1819     Mn1844   2.167   1_455  S
N1820      C1824   1.345       .  A
N1821      N1822   1.320       .  A
N1821     Mn1833   2.181       .  S
N1822      C1823   1.348       .  A
C1823      C1928   1.426       .  S
C1824      C1945   1.423       .  S
N1825      N1831   1.314       .  A
N1825      N1826   1.317       .  A
N1825     Mn1855   2.177       .  S
N1826      C1834   1.344       .  A
N1827      N1828   1.330       .  A
N1827      N1829   1.315       .  A
N1827     Mn1833   2.253       .  S
N1828      C1835   1.361       .  A
N1829      N1830   1.329       .  A
N1830      C1835   1.359       .  A
N1831      N1832   1.322       .  A
N1832      C1834   1.351       .  A
Mn1833    Cl1857   2.550   1_655  S
C1834      C1912   1.429       .  S
C1835      C1967   1.481       .  S
N1836      N1837   1.329       .  A
N1836      N1842   1.315       .  A
N1837      C1845   1.359       .  A
N1838      N1840   1.314       .  A
N1838      N1839   1.322       .  A
N1839      C1846   1.351       .  A
N1840      N1841   1.317       .  A
N1840     Mn1844   2.177       .  S
N1841      C1846   1.344       .  A
N1842      N1843   1.330       .  A
N1842     Mn1856   2.253       .  S
N1843      C1845   1.360       .  A
Mn1844    Cl1857   2.542   1_655  S
C1845      C1955   1.480       .  S
C1846      C1905   1.429       .  S
N1847      N1853   1.317       .  A
N1847     Mn1855   2.166       .  S
N1848      C1858   1.344       .  A
N1849      N1850   1.320       .  A
N1849      N1851   1.318       .  A
N1849     Mn1856   2.181       .  S
N1850      C1859   1.348       .  A
N1851      N1852   1.318       .  A
N1851     Mn1855   2.214       .  S
N1852      C1859   1.349       .  A
N1853     Mn1856   2.222       .  S
N1854      C1858   1.352       .  A
C1858      C1949   1.423       .  S
C1859      C1921   1.426       .  S
N1860      N1861   1.332       .  A
N1860      N1866   1.317       .  A
N1860     Mn1889   2.253       .  S
N1861      C1868   1.361       .  A
N1862      N1864   1.314       .  A
N1862      N1863   1.321       .  A
N1862     Mn1878   2.198       .  S
N1863      C1869   1.351       .  A
N1864      N1865   1.323       .  A
N1865      C1869   1.354       .  A
N1866      N1867   1.329       .  A
N1867      C1868   1.357       .  A
C1868      C1966   1.481       .  S
C1869      C1917   1.443       .  S
N1870      N1876   1.320       .  A
N1870      N1871   1.321       .  A
N1870     Mn1900   2.207       .  S
N1871      C1879   1.352       .  A
N1872      N1873   1.322       .  A
N1872      N1874   1.320       .  A
N1873      C1880   1.351       .  A
N1874      N1875   1.315       .  A
N1875      C1880   1.345       .  A
N1876      N1877   1.317       .  A
N1876     Mn1878   2.200       .  S
N1877      C1879   1.346       .  A
Mn1878    Cl1902   2.550       .  S
C1879      C1908   1.427       .  S
C1880      C1944   1.427       .  S
N1881      N1882   1.316       .  A
N1881      N1887   1.320       .  A
N1882      C1890   1.345       .  A
N1883      N1885   1.320       .  A
N1883      N1884   1.317       .  A
N1883     Mn1901   2.200       .  S
N1884      C1891   1.346       .  A
N1885      N1886   1.321       .  A
N1885     Mn1889   2.206       .  S
N1886      C1891   1.352       .  A
N1887      N1888   1.322       .  A
N1888      C1890   1.351       .  A
C1890      C1937   1.426       .  S
C1891      C1909   1.427       .  S
N1892      N1893   1.323   1_545  A
N1892      N1898   1.314   1_545  A
N1893      C1903   1.354       .  A
N1894      N1895   1.328       .  A
N1894      N1896   1.317       .  A
N1895      C1904   1.357       .  A
N1896      N1897   1.332       .  A
N1896     Mn1900   2.253       .  S
N1897      C1904   1.361       .  A
N1898      N1899   1.321       .  A
N1898     Mn1901   2.198       .  S
N1899      C1903   1.351       .  A
Mn1900    Cl1902   2.555       .  S
C1903      C1916   1.443       .  S
C1904      C1954   1.481       .  S
C1905      C1906   1.202       .  T
C1906      C1907   1.405       .  S
C1907      C1908   1.201       .  T
C1909      C1910   1.201       .  T
C1910      C1911   1.405       .  S
C1911      C1912   1.202       .  T
C1913      C1914   1.210       .  T
C1914      C1915   1.419       .  S
C1915      C1916   1.210       .  T
C1917      C1918   1.210       .  T
C1918      C1919   1.419       .  S
C1919      C1920   1.210       .  T
C1921      C1922   1.199       .  T
C1922      C1923   1.400       .  S
C1923      C1924   1.199       .  T
C1925      C1926   1.199       .  T
C1926      C1927   1.401       .  S
C1927      C1928   1.199       .  T
C1929      C1930   1.202       .  T
C1930      C1931   1.408       .  S
C1931      C1932   1.203       .  T
C1933      C1934   1.202       .  T
C1934      C1935   1.407       .  S
C1935      C1936   1.202       .  T
C1937      C1938   1.200       .  T
C1939      C1940   1.201       .  T
C1941      C1942   1.201       .  T
C1943      C1944   1.200       .  T
C1946      C1947   1.398       .  S
C1947      C1948   1.197       .  T
C1949      C1950   1.197       .  T
C1950      C1951   1.398       .  S
C1953      C1954   1.233       .  T
C1955      C1956   1.232       .  T
C1957      C1958   1.235       .  T
C1959      C1960   1.230       .  T
C1961      C1962   1.230       .  T
C1963      C1964   1.235       .  T
C1965      C1966   1.233       .  T
C1967      C1968   1.233       .  T
