geometry optimzed in LAMMPS
_audit_creation_date              2020-11-30 
_audit_creation_method            'lammps2cif' 
_symmetry_space_group_name_H-M    'P1' 
_symmetry_Int_Tables_number       1 
_symmetry_cell_setting            triclinic 
loop_ 
_symmetry_equiv_pos_as_xyz 
  x,y,z 
_cell_length_a                    42.480642225489156 
_cell_length_b                    41.84198860846694 
_cell_length_c                    41.32621790951321 
_cell_angle_alpha                 90.43045417762545 
_cell_angle_beta                  89.8486246567931 
_cell_angle_gamma                 90.40700630305123 
loop_ 
_atom_site_label 
_atom_site_type_symbol 
_atom_site_fract_x 
_atom_site_fract_y 
_atom_site_fract_z 
_atom_site_charge 
C1          C  0.36786047  0.36801618  0.51258762     0.02940
C2          C  0.37536192  0.33485494  0.01212414    -0.13210
C3          C  0.35407749  0.31310783  0.99813270     0.00440
C4          C  0.32780136  0.32596926  0.98284944    -0.11730
C5          C  0.31502480  0.35484229  0.49352874     0.02940
C6          C  0.33615140  0.37726056  0.50672872    -0.11150
H7          H  0.39778794  0.32655815  0.02105941     0.08530
H8          H  0.31439806  0.31105376  0.96711874     0.06060
H9          H  0.32832722  0.40149298  0.51070596     0.05910
C10         C  0.36731658  0.22347923  0.98572546     0.02940
C11         C  0.37619079  0.25612618  0.99126120    -0.13210
C12         C  0.35362454  0.27754964  0.00291541     0.00440
C13         C  0.32500321  0.26431209  0.01268239    -0.11730
C14         C  0.31264808  0.23766594  0.99661428     0.02940
C15         C  0.33447528  0.21631994  0.98302276    -0.11150
H16         H  0.39999553  0.26473113  0.98789998     0.08530
H17         H  0.30990391  0.27784536  0.02785618     0.06060
H18         H  0.32631340  0.19429329  0.97190929     0.05910
C19         C  0.22561350  0.22385190  0.01314670     0.02940
C20         C  0.21840702  0.25712599  0.01482084    -0.13210
C21         C  0.23906348  0.27927931  0.00060843     0.00440
C22         C  0.26441685  0.26680082  0.98324189    -0.11730
C23         C  0.27756456  0.23756446  0.99191034     0.02940
C24         C  0.25692206  0.21472863  0.00486019    -0.11150
H25         H  0.19656848  0.26527333  0.02553036     0.08530
H26         H  0.27713614  0.28215849  0.96751235     0.06060
H27         H  0.26487116  0.19037901  0.00678352     0.05910
C28         C  0.22535982  0.36828899  0.98735486     0.02940
C29         C  0.25821622  0.37511921  0.98426747    -0.13210
C30         C  0.28004403  0.35483980  0.99906371     0.00440
C31         C  0.26777607  0.32866095  0.01579863    -0.11730
C32         C  0.23927248  0.31486735  0.00610571     0.02940
C33         C  0.21677578  0.33574068  0.99376423    -0.11150
H34         H  0.26656712  0.39574661  0.97113210     0.08540
H35         H  0.28271256  0.31605673  0.03181448     0.06060
H36         H  0.19333297  0.32638916  0.99013571     0.05910
C37         C  0.36635513  0.05876859  0.32299647     0.02940
C38         C  0.33366204  0.05876010  0.33081549    -0.13210
C39         C  0.31245340  0.04450798  0.30904339     0.00440
C40         C  0.32523871  0.03059832  0.28129425    -0.11730
C41         C  0.35308619  0.04255686  0.26806990     0.02940
C42         C  0.37519538  0.05499253  0.28984793    -0.11150
H43         H  0.32532232  0.06793199  0.35383051     0.08530
H44         H  0.31093305  0.01519377  0.26702021     0.06060
H45         H  0.39878693  0.06004282  0.28133797     0.05910
C46         C  0.22461703  0.02962250  0.32262179     0.02940
C47         C  0.25685639  0.03364889  0.33116435    -0.13210
C48         C  0.27743060  0.04821098  0.30915963     0.00440
C49         C  0.26426836  0.05980585  0.28066989    -0.11730
C50         C  0.23729380  0.04553461  0.26765879     0.02940
C51         C  0.21583150  0.03215737  0.28953863    -0.11150
H52         H  0.26519965  0.02709088  0.35493643     0.08530
H53         H  0.27782065  0.07547233  0.26595538     0.06060
H54         H  0.19250799  0.02571892  0.28124580     0.05910
C55         C  0.22505945  0.05753018  0.17740268     0.02940
C56         C  0.21601619  0.05344306  0.21027120    -0.13210
C57         C  0.23741026  0.04005901  0.23180501     0.00440
C58         C  0.26490816  0.02725243  0.21853984    -0.11730
C59         C  0.27813443  0.04016326  0.19048395     0.02940
C60         C  0.25741726  0.05463503  0.16879256    -0.11150
H61         H  0.19254219  0.05890511  0.21870268     0.08530
H62         H  0.27851369  0.01136460  0.23267422     0.06060
H63         H  0.26581486  0.06225403  0.14529604     0.05910
C64         C  0.36695159  0.02841069  0.17790302     0.02940
C65         C  0.37552842  0.03347828  0.21082267    -0.13210
C66         C  0.35343307  0.04667501  0.23209304     0.00440
C67         C  0.32588377  0.05856412  0.21847928    -0.11730
C68         C  0.31322741  0.04456976  0.19064809     0.02940
C69         C  0.33450456  0.03003861  0.16922674    -0.11150
H70         H  0.39906961  0.02905031  0.21945130     0.08530
H71         H  0.31162255  0.07413528  0.23254455     0.06060
H72         H  0.32650134  0.02172570  0.14574903     0.05910
C73         C  0.05031643  0.22593289  0.32114805     0.02940
C74         C  0.03588445  0.25528574  0.32928481    -0.13210
C75         C  0.04010551  0.28158522  0.30911559     0.00440
C76         C  0.06029924  0.27875349  0.28258652    -0.11730
C77         C  0.06912345  0.24878492  0.27008695     0.02940
C78         C  0.06470424  0.22216300  0.29033150    -0.11150
H79         H  0.02176299  0.25764303  0.35102382     0.08530
H80         H  0.06470633  0.30034702  0.26927297     0.06060
H81         H  0.07240295  0.19875395  0.28241527     0.05910
C82         C  0.02803326  0.36829959  0.31790409     0.02940
C83         C  0.03064822  0.33687561  0.32971598    -0.13210
C84         C  0.02085155  0.31110111  0.31045613     0.00440
C85         C  0.00439660  0.31798392  0.28193992    -0.11730
C86         C  0.01214757  0.34629899  0.26526366     0.02940
C87         C  0.02169762  0.37263688  0.28455237    -0.11150
H88         H  0.04150216  0.33242020  0.35292536     0.08530
H89         H  0.99404100  0.29801278  0.26893467     0.06060
H90         H  0.02590941  0.39576847  0.27375908     0.05910
C91         C  0.05895044  0.22521841  0.18171867     0.02940
C92         C  0.06435188  0.22084962  0.21526982    -0.13210
C93         C  0.07634389  0.24628735  0.23435442     0.00440
C94         C  0.08573472  0.27408185  0.21774528    -0.11730
C95         C  0.06972731  0.28185560  0.18925726     0.02940
C96         C  0.05899300  0.25671429  0.16972387    -0.11150
H97         H  0.05785059  0.19840613  0.22638443     0.08530
H98         H  0.09696536  0.29347608  0.23090041     0.06060
H99         H  0.04925851  0.26202056  0.14620209     0.05910
C100        C  0.04080308  0.36698944  0.17924323     0.02940
C101        C  0.02534291  0.37074309  0.20949731    -0.13210
C102        C  0.02062764  0.34402342  0.22968829     0.00440
C103        C  0.03023239  0.31416659  0.21737191    -0.11730
C104        C  0.05091732  0.31154637  0.19119388     0.02940
C105        C  0.05546942  0.33785427  0.17130566    -0.11150
H106        H  0.01682272  0.39402604  0.21683119     0.08530
H107        H  0.02562797  0.29242741  0.23032910     0.06060
H108        H  0.07004687  0.33576435  0.14984609     0.05910
O109        O  0.45635759  0.49405334  0.00102297    -0.86670
O110        O  0.13487315  0.49405942  0.99846579    -0.86840
O111        O  0.04499833  0.45614469  0.44512455    -0.88510
O112        O  0.04680011  0.45543825  0.05184273    -0.87270
O113        O  0.04752013  0.49414182  0.09153284    -0.86860
O114        O  0.04347206  0.49572191  0.40686790    -0.88230
O115        O  0.09675446  0.45529009  0.99686807    -0.86700
O116        O  0.49447853  0.45541971  0.00108149    -0.86290
Zr117      Zr  0.04583416  0.48153908  0.99895513     2.84310
O118        O  0.07771947  0.01346505  0.03264388    -1.08270
O119        O  0.01412163  0.01382759  0.46646190    -1.09000
C120        C  0.46553105  0.46465300  0.00187165     1.06430
C121        C  0.12578595  0.46447311  0.99662354     1.06380
C122        C  0.04373122  0.46621170  0.41558258     1.09360
C123        C  0.04747227  0.46479643  0.08178548     1.07140
H124        H  0.09065093  0.00085788  0.45328511     0.32700
O125        O  0.07773609  0.01422236  0.46696893    -1.29220
H126        H  0.00134752  0.00020355  0.04527072     0.32370
O127        O  0.01436577  0.01377426  0.03191773    -1.30900
O128        O  0.13561002  0.09853129  0.00237941    -0.86670
O129        O  0.45722482  0.09848857  0.99807522    -0.88170
O130        O  0.09794197  0.04341089  0.40843432    -0.86750
O131        O  0.09726056  0.04874093  0.09209131    -0.86790
O132        O  0.49403608  0.04210458  0.09167933    -0.86510
O133        O  0.49567988  0.04918820  0.40781278    -0.86310
O134        O  0.04693521  0.13745899  0.44851022    -0.86680
O135        O  0.04340684  0.13660337  0.05464255    -0.86150
O136        O  0.04809492  0.09871660  0.40873671    -0.87210
O137        O  0.04411858  0.09718839  0.09303422    -0.86370
O138        O  0.13555803  0.04509058  0.44821267    -0.86770
O139        O  0.45751922  0.04750287  0.44704234    -0.86490
O140        O  0.45648732  0.04410260  0.05193165    -0.86140
O141        O  0.13510304  0.04728622  0.05237202    -0.86550
O142        O  0.09749642  0.13705708  0.00411453    -0.86840
O143        O  0.49532709  0.13741310  0.99846106    -0.88180
Zr144      Zr  0.10925110  0.04639112  0.00026487     2.83100
Zr145      Zr  0.48274966  0.04615852  0.99976436     2.83500
Zr146      Zr  0.04654056  0.04682069  0.43481395     2.84090
Zr147      Zr  0.04573969  0.04583613  0.06543122     2.83360
Zr148      Zr  0.04609986  0.11098594  0.00118423     2.84220
O149        O  0.01379837  0.07858661  0.03358557    -1.08750
O150        O  0.07837144  0.07942976  0.46777106    -1.08250
C151        C  0.12647729  0.12793664  0.00414044     1.06410
C152        C  0.46637434  0.12807219  0.99687646     1.09020
C153        C  0.12674653  0.04325176  0.41842586     1.06580
C154        C  0.12619935  0.04867317  0.08217818     1.06940
C155        C  0.46516788  0.04201258  0.08172529     1.06520
C156        C  0.46671353  0.04948294  0.41728663     1.06070
C157        C  0.04754453  0.12801819  0.41863854     1.06500
C158        C  0.04340654  0.12669540  0.08423928     1.06010
H159        H  0.00206292  0.09210028  0.45432243     0.32690
O160        O  0.01484888  0.07870259  0.46782892    -1.29850
H161        H  0.09041913  0.09183461  0.04711320     0.32710
O162        O  0.07751406  0.07847556  0.03329819    -1.31230
C163        C  0.02706066  0.41328053  0.10254799    -0.09340
C164        C  0.04681865  0.43994629  0.10701749     0.06850
C165        C  0.06424193  0.44285954  0.13604956    -0.03110
C166        C  0.06137134  0.41940730  0.15994058    -0.07560
C167        C  0.04155602  0.39288625  0.15528101     0.05970
C168        C  0.02429825  0.38993251  0.12635637    -0.02580
Br169      Br  0.49606188  0.35470454  0.11858872    -0.02280
H170        H  0.01323006  0.41085389  0.08065668     0.09880
H171        H  0.07523507  0.42142778  0.18183814     0.07900
Br172      Br  0.09397964  0.47692700  0.14349289    -0.02710
C173        C  0.02827184  0.20071554  0.13576991    -0.09340
C174        C  0.05185842  0.19786489  0.15952002     0.06850
C175        C  0.07085451  0.17028990  0.15912940    -0.03110
C176        C  0.06668007  0.14701677  0.13510119    -0.07560
C177        C  0.04442505  0.15081286  0.11047340     0.05970
C178        C  0.02469220  0.17770172  0.11118443    -0.02580
Br179      Br  0.99217670  0.18373414  0.07965397    -0.02280
H180        H  0.01291636  0.22125810  0.13587744     0.09880
H181        H  0.08207390  0.12648102  0.13473893     0.07900
Br182      Br  0.10530626  0.16433526  0.18830678    -0.02710
C183        C  0.01488010  0.44252485  0.36929576    -0.09340
C184        C  0.04140674  0.44227212  0.38937166     0.06850
C185        C  0.06521394  0.41975208  0.38350811    -0.03110
C186        C  0.06120384  0.39651853  0.35924799    -0.07560
C187        C  0.03389984  0.39577480  0.34004954     0.05970
C188        C  0.01094015  0.41959125  0.34482034    -0.02580
Br189      Br  0.47253762  0.42061994  0.32049822    -0.02280
H190        H  0.99668379  0.46016449  0.37327213     0.09880
H191        H  0.07939979  0.37886330  0.35544952     0.07900
Br192      Br  0.10430669  0.42121233  0.40648165    -0.02710
C193        C  0.02083168  0.18980986  0.35845079    -0.09340
C194        C  0.04966443  0.19936686  0.34470070     0.06850
C195        C  0.07771765  0.18503879  0.35554904    -0.03110
C196        C  0.07650470  0.16176318  0.37965407    -0.07560
C197        C  0.04776426  0.15264973  0.39353684     0.05970
C198        C  0.01971473  0.16660269  0.38264767    -0.02580
Br199      Br  0.47939200  0.15450534  0.39981622    -0.02280
H200        H  0.49911562  0.20056612  0.35042252     0.09880
H201        H  0.09815986  0.15107562  0.38799062     0.07900
Br202      Br  0.11856698  0.19787771  0.34023584    -0.02710
C203        C  0.38749517  0.04951217  0.12639802    -0.09340
C204        C  0.39141737  0.02818882  0.15214898     0.06850
C205        C  0.41982295  0.01096518  0.15420907    -0.03110
C206        C  0.44383217  0.01630200  0.13145949    -0.07560
C207        C  0.43990726  0.03812169  0.10609800     0.05970
C208        C  0.41113277  0.05446570  0.10353268    -0.02580
Br209      Br  0.40309915  0.08568926  0.07088211    -0.02280
H210        H  0.36624117  0.06355755  0.12467202     0.09880
H211        H  0.46541433  0.00277341  0.13316401     0.07900
Br212      Br  0.42652713  0.97845659  0.18593091    -0.02710
C213        C  0.20302594  0.03641797  0.12635581    -0.09340
C214        C  0.20077492  0.05874291  0.15176090     0.06850
C215        C  0.17382095  0.07814105  0.15386293    -0.03110
C216        C  0.14927450  0.07398086  0.13155113    -0.07560
C217        C  0.15145998  0.05117181  0.10652557     0.05970
C218        C  0.17891201  0.03259598  0.10385762    -0.02580
Br219      Br  0.18421116  0.99996935  0.07142925    -0.02280
H220        H  0.22323248  0.02082616  0.12465934     0.09880
H221        H  0.12879430  0.08917452  0.13324276     0.07900
Br222      Br  0.17042175  0.11195681  0.18516888    -0.02710
C223        C  0.20307093  0.05350794  0.37259539    -0.09340
C224        C  0.20032398  0.02981326  0.34842116     0.06850
C225        C  0.17313182  0.01023593  0.34779707    -0.03110
C226        C  0.14900319  0.01549445  0.37035694    -0.07560
C227        C  0.15177880  0.03956813  0.39408278     0.05970
C228        C  0.17933006  0.05837579  0.39535624    -0.02580
Br229      Br  0.18509877  0.09250308  0.42624584    -0.02280
H230        H  0.22341769  0.06926591  0.37314502     0.09880
H231        H  0.12830923  0.00019764  0.36988635     0.07900
Br232      Br  0.16846452  0.97480032  0.31840437    -0.02710
C233        C  0.42021788  0.07364414  0.34262863    -0.09340
C234        C  0.39085289  0.05911199  0.34875358     0.06850
C235        C  0.38733827  0.04088033  0.37737926    -0.03110
C236        C  0.41220185  0.03877594  0.39919168    -0.07560
C237        C  0.44167670  0.05256465  0.39262099     0.05970
C238        C  0.44578336  0.06952594  0.36342525    -0.02580
Br239      Br  0.48548521  0.08682847  0.34934123    -0.02280
H240        H  0.42379122  0.08751507  0.32091466     0.09880
H241        H  0.40881316  0.02485467  0.42095280     0.07900
Br242      Br  0.35125214  0.01457429  0.38726159    -0.02710
C243        C  0.16896093  0.38566219  0.98053324    -0.09340
C244        C  0.20072325  0.39420236  0.98609600     0.06850
C245        C  0.20695224  0.42664363  0.49517372    -0.03110
C246        C  0.18240759  0.44875301  0.49690676    -0.07560
C247        C  0.15072283  0.43951654  0.99324159     0.05970
C248        C  0.14421892  0.40698449  0.98599670    -0.02580
Br249      Br  0.10264302  0.38827004  0.98550800    -0.02280
H250        H  0.16256259  0.36175156  0.97306961     0.09880
H251        H  0.18825885  0.47330052  0.50292405     0.07900
Br252      Br  0.24681666  0.44335479  0.50990453    -0.02710
C253        C  0.17168444  0.20652050  0.49778508    -0.09340
C254        C  0.19961399  0.19969624  0.01465187     0.06850
C255        C  0.20257939  0.16927280  0.02898654    -0.03110
C256        C  0.17870641  0.14627453  0.02485189    -0.07560
C257        C  0.15116942  0.15303375  0.00741315     0.05970
C258        C  0.14758593  0.18389358  0.49431905    -0.02580
Br259      Br  0.11150335  0.19648367  0.46956654    -0.02280
H260        H  0.16892837  0.22939195  0.48605352     0.09880
H261        H  0.18141451  0.12310209  0.03600445     0.07900
Br262      Br  0.23711165  0.15808885  0.05648319    -0.02710
C263        C  0.41045315  0.14501266  0.50142815    -0.09340
C264        C  0.44156441  0.15283906  0.99290135     0.06850
C265        C  0.44759961  0.18374301  0.98039548    -0.03110
C266        C  0.42265646  0.20485167  0.97533965    -0.07560
C267        C  0.39170903  0.19765144  0.98544142     0.05970
C268        C  0.38610702  0.16719749  0.49944234    -0.02580
Br269      Br  0.34766131  0.15461226  0.52076599    -0.02280
H270        H  0.40516023  0.12177551  0.51138257     0.09880
H271        H  0.42804892  0.22760263  0.96434343     0.07900
Br272      Br  0.48900783  0.20010174  0.97072456    -0.02710
C273        C  0.41955758  0.38705452  0.49251044    -0.09340
C274        C  0.39371925  0.39219708  0.01325522     0.06850
C275        C  0.39219623  0.42125008  0.03080050    -0.03110
C276        C  0.41554261  0.44469793  0.02633048    -0.07560
C277        C  0.44100007  0.43959323  0.00511958     0.05970
C278        C  0.44306275  0.41016580  0.48845527    -0.02580
Br279      Br  0.47607734  0.40077003  0.45798919    -0.02280
H280        H  0.42097162  0.36523713  0.47830795     0.09880
H281        H  0.41415538  0.46681561  0.04006068     0.07900
Br282      Br  0.36031790  0.42956678  0.06272051    -0.02710
C283        C  0.36785658  0.36801968  0.01259565     0.02940
C284        C  0.37536031  0.33485004  0.51211284    -0.13210
C285        C  0.35406928  0.31310696  0.49812474     0.00440
C286        C  0.32779434  0.32597406  0.48284479    -0.11730
C287        C  0.31502488  0.35483493  0.99353126     0.02940
C288        C  0.33614612  0.37725789  0.00673313    -0.11150
H289        H  0.39778584  0.32654887  0.52104512     0.08530
H290        H  0.31438801  0.31106273  0.46711292     0.06060
H291        H  0.32831716  0.40148899  0.01070807     0.05910
C292        C  0.36728165  0.22347543  0.48570967     0.02940
C293        C  0.37616492  0.25612042  0.49124308    -0.13210
C294        C  0.35360879  0.27754872  0.50290840     0.00440
C295        C  0.32498806  0.26431739  0.51268704    -0.11730
C296        C  0.31262102  0.23767347  0.49662372     0.02940
C297        C  0.33443803  0.21632399  0.48302042    -0.11150
H298        H  0.39996982  0.26472092  0.48787231     0.08530
H299        H  0.30989851  0.27785293  0.52786943     0.06060
H300        H  0.32626678  0.19430100  0.47190679     0.05910
C301        C  0.22557669  0.22388390  0.51314743     0.02940
C302        C  0.21837190  0.25715867  0.51480934    -0.13210
C303        C  0.23904057  0.27930677  0.50060638     0.00440
C304        C  0.26439749  0.26682041  0.48325127    -0.11730
C305        C  0.27753673  0.23758263  0.49192709     0.02940
C306        C  0.25688710  0.21475354  0.50487778    -0.11150
H307        H  0.19652784  0.26530960  0.52550391     0.08530
H308        H  0.27712415  0.28217291  0.46752353     0.06060
H309        H  0.26483052  0.19040260  0.50681604     0.05910
C310        C  0.22536410  0.36832718  0.48736851     0.02940
C311        C  0.25822191  0.37514724  0.48427807    -0.13210
C312        C  0.28004477  0.35485589  0.49906426     0.00440
C313        C  0.26777076  0.32867781  0.51579526    -0.11730
C314        C  0.23926145  0.31489544  0.50610468     0.02940
C315        C  0.21676960  0.33577973  0.49377248    -0.11150
H316        H  0.26657769  0.39577606  0.47114808     0.08540
H317        H  0.28270565  0.31606434  0.53180427     0.06060
H318        H  0.19332308  0.32643697  0.49014698     0.05910
C319        C  0.36636175  0.05878135  0.82299467     0.02940
C320        C  0.33366844  0.05877180  0.83081274    -0.13210
C321        C  0.31246088  0.04451899  0.80904001     0.00440
C322        C  0.32524696  0.03061102  0.78129065    -0.11730
C323        C  0.35309296  0.04257259  0.76806652     0.02940
C324        C  0.37520213  0.05500779  0.78984552    -0.11150
H325        H  0.32532774  0.06794307  0.85382762     0.08530
H326        H  0.31094221  0.01520590  0.76701620     0.06060
H327        H  0.39879339  0.06005963  0.78133576     0.05910
C328        C  0.22462804  0.02961954  0.82261846     0.02940
C329        C  0.25686651  0.03365153  0.83116118    -0.13210
C330        C  0.27743788  0.04821775  0.80915681     0.00440
C331        C  0.26427353  0.05981038  0.78066705    -0.11730
C332        C  0.23730111  0.04553456  0.76765617     0.02940
C333        C  0.21584155  0.03215324  0.78953577    -0.11150
H334        H  0.26521088  0.02709490  0.85493325     0.08530
H335        H  0.27782301  0.07547927  0.76595253     0.06060
H336        H  0.19251887  0.02571102  0.78124327     0.05910
C337        C  0.22505867  0.05753347  0.67740247     0.02940
C338        C  0.21601842  0.05344115  0.71027110    -0.13210
C339        C  0.23741653  0.04006035  0.73180250     0.00440
C340        C  0.26491591  0.02725975  0.71853518    -0.11730
C341        C  0.27813860  0.04017521  0.69048003     0.02940
C342        C  0.25741703  0.05464417  0.66879015    -0.11150
H343        H  0.19254393  0.05889730  0.71870499     0.08530
H344        H  0.27852522  0.01137376  0.73266787     0.06060
H345        H  0.26581214  0.06226698  0.64529402     0.05910
C346        C  0.36695640  0.02842854  0.67789930     0.02940
C347        C  0.37553337  0.03349570  0.71081877    -0.13210
C348        C  0.35343821  0.04669180  0.73208954     0.00440
C349        C  0.32588751  0.05857947  0.71847630    -0.11730
C350        C  0.31323159  0.04458629  0.69064376     0.02940
C351        C  0.33450960  0.03005655  0.66922236    -0.11150
H352        H  0.39907472  0.02906730  0.71944690     0.08530
H353        H  0.31162560  0.07414931  0.73254231     0.06060
H354        H  0.32650709  0.02174415  0.64574421     0.05910
C355        C  0.05032372  0.22593319  0.82114238     0.02940
C356        C  0.03588462  0.25528392  0.82927576    -0.13210
C357        C  0.04010240  0.28158370  0.80910517     0.00440
C358        C  0.06030099  0.27875600  0.78258017    -0.11730
C359        C  0.06913157  0.24878977  0.77008190     0.02940
C360        C  0.06471490  0.22216647  0.79032638    -0.11150
H361        H  0.02176065  0.25763964  0.85101316     0.08530
H362        H  0.06470636  0.30035014  0.76926695     0.06060
H363        H  0.07241772  0.19875886  0.78241014     0.05910
C364        C  0.02803091  0.36829590  0.81789109     0.02940
C365        C  0.03064117  0.33687211  0.82970362    -0.13210
C366        C  0.02084638  0.31109845  0.81044240     0.00440
C367        C  0.00439709  0.31798269  0.78192243    -0.11730
C368        C  0.01214942  0.34629955  0.76524850     0.02940
C369        C  0.02169907  0.37263542  0.78453932    -0.11150
H370        H  0.04149109  0.33241607  0.85291491     0.08530
H371        H  0.99404346  0.29801205  0.76891477     0.06060
H372        H  0.02591267  0.39576754  0.77374784     0.05910
C373        C  0.05895851  0.22522859  0.68171413     0.02940
C374        C  0.06436041  0.22085926  0.71526457    -0.13210
C375        C  0.07635290  0.24629577  0.73434926     0.00440
C376        C  0.08574277  0.27409196  0.71774086    -0.11730
C377        C  0.06973926  0.28186538  0.68924952     0.02940
C378        C  0.05900504  0.25672346  0.66971714    -0.11150
H379        H  0.05785832  0.19841584  0.72637897     0.08530
H380        H  0.09697120  0.29348661  0.73089737     0.06060
H381        H  0.04927142  0.26202864  0.64619464     0.05910
C382        C  0.04080921  0.36699964  0.67923008     0.02940
C383        C  0.02534614  0.37074995  0.70948363    -0.13210
C384        C  0.02063107  0.34402839  0.72967318     0.00440
C385        C  0.03023940  0.31417350  0.71735682    -0.11730
C386        C  0.05092803  0.31155615  0.69118219     0.02940
C387        C  0.05547872  0.33786508  0.67129353    -0.11150
H388        H  0.01682421  0.39403189  0.71681860     0.08530
H389        H  0.02563582  0.29243360  0.73031317     0.06060
H390        H  0.07005860  0.33577687  0.64983560     0.05910
O391        O  0.45635472  0.49405086  0.50102582    -0.86670
O392        O  0.13490203  0.49413024  0.49846131    -0.86840
O393        O  0.04497038  0.45611941  0.94512355    -0.88510
O394        O  0.04682384  0.45546737  0.55183830    -0.87270
O395        O  0.04753306  0.49416915  0.59152974    -0.86860
O396        O  0.04346196  0.49570124  0.90687015    -0.88230
O397        O  0.09678942  0.45535392  0.49687389    -0.86700
O398        O  0.49448152  0.45542274  0.50108124    -0.86290
Zr399      Zr  0.04585876  0.48157320  0.49895269     2.84310
O400        O  0.07771311  0.01348312  0.53264792    -1.08270
O401        O  0.01412921  0.01382086  0.96645580    -1.09000
C402        C  0.46553257  0.46465191  0.50187259     1.06430
C403        C  0.12581857  0.46454154  0.49662577     1.06380
C404        C  0.04371223  0.46619048  0.91558264     1.09360
C405        C  0.04748976  0.46482357  0.58178181     1.07140
H406        H  0.09065592  0.00083728  0.95327852     0.32700
O407        O  0.07774345  0.01420412  0.96696242    -1.29220
H408        H  0.00134219  0.00020937  0.54527477     0.32370
O409        O  0.01435858  0.01378179  0.53192163    -1.30900
O410        O  0.13558652  0.09856114  0.50238276    -0.86670
O411        O  0.45719754  0.09848277  0.49806008    -0.88170
O412        O  0.09795370  0.04339974  0.90842931    -0.86750
O413        O  0.09725011  0.04875437  0.59209689    -0.86790
O414        O  0.49404007  0.04212396  0.59167544    -0.86510
O415        O  0.49568182  0.04918315  0.90781713    -0.86310
O416        O  0.04696062  0.13744820  0.94850642    -0.86680
O417        O  0.04338266  0.13661539  0.55464801    -0.86150
O418        O  0.04810684  0.09870806  0.90873058    -0.87210
O419        O  0.04410502  0.09719889  0.59303830    -0.86370
O420        O  0.13557127  0.04506651  0.94820722    -0.86770
O421        O  0.45752132  0.04751144  0.94704732    -0.86490
O422        O  0.45648886  0.04410942  0.55192886    -0.86140
O423        O  0.13509073  0.04731272  0.55237578    -0.86550
O424        O  0.09746766  0.13708344  0.50410982    -0.86840
O425        O  0.49528763  0.13741887  0.49844898    -0.88180
Zr426      Zr  0.10923534  0.04641974  0.50026991     2.83100
Zr427      Zr  0.48274700  0.04616443  0.49975973     2.83500
Zr428      Zr  0.04655263  0.04681030  0.93480814     2.84090
Zr429      Zr  0.04572853  0.04584691  0.56543612     2.83360
Zr430      Zr  0.04607225  0.11100163  0.50118879     2.84220
O431        O  0.01378022  0.07859328  0.53359108    -1.08750
O432        O  0.07839293  0.07940882  0.96776631    -1.08250
C433        C  0.12644998  0.12796492  0.50413803     1.06410
C434        C  0.46633831  0.12806912  0.49685964     1.09020
C435        C  0.12675821  0.04323562  0.91842057     1.06580
C436        C  0.12618877  0.04869215  0.58218279     1.06940
C437        C  0.46517161  0.04202569  0.58172235     1.06520
C438        C  0.46671572  0.04948788  0.91729133     1.06070
C439        C  0.04756202  0.12800975  0.91863356     1.06500
C440        C  0.04338877  0.12670594  0.58424409     1.06010
H441        H  0.00208384  0.09209559  0.95431947     0.32690
O442        O  0.01486775  0.07869516  0.96782517    -1.29850
H443        H  0.09039733  0.09185761  0.54711826     0.32710
O444        O  0.07749343  0.07849698  0.53330357    -1.31230
C445        C  0.02707484  0.41330441  0.60253789    -0.09340
C446        C  0.04683226  0.43997018  0.60701261     0.06850
C447        C  0.06425161  0.44287904  0.63604756    -0.03110
C448        C  0.06137930  0.41942229  0.65993491    -0.07560
C449        C  0.04156525  0.39290063  0.65526987     0.05970
C450        C  0.02430999  0.38995233  0.62634287    -0.02580
Br451      Br  0.49606478  0.35470671  0.61859271    -0.02280
H452        H  0.01324641  0.41088081  0.58064482     0.09880
H453        H  0.07524059  0.42144018  0.68183429     0.07900
Br454      Br  0.09398640  0.47694714  0.64349926    -0.02710
C455        C  0.02826758  0.20072658  0.63577535    -0.09340
C456        C  0.05186026  0.19787560  0.65951867     0.06850
C457        C  0.07085508  0.17030007  0.65912512    -0.03110
C458        C  0.06667360  0.14702601  0.63509967    -0.07560
C459        C  0.04441228  0.15082219  0.61047799     0.05970
C460        C  0.02468057  0.17771168  0.61119250    -0.02580
Br461      Br  0.99215783  0.18374380  0.57966992    -0.02280
H462        H  0.01291358  0.22127034  0.63588596     0.09880
H463        H  0.08206698  0.12648993  0.63473395     0.07900
Br464      Br  0.10531406  0.16434681  0.68829381    -0.02710
C465        C  0.01486689  0.44251023  0.86929082    -0.09340
C466        C  0.04139136  0.44225544  0.88936917     0.06850
C467        C  0.06520257  0.41974066  0.88350334    -0.03110
C468        C  0.06119766  0.39651190  0.85923823    -0.07560
C469        C  0.03389505  0.39576902  0.84003788     0.05970
C470        C  0.01093222  0.41958170  0.84481038    -0.02580
Br471      Br  0.47254177  0.42063206  0.82048224    -0.02280
H472        H  0.99666853  0.46014735  0.87326888     0.09880
H473        H  0.07939558  0.37885905  0.85543818     0.07900
Br474      Br  0.10429252  0.42120160  0.90648237    -0.02710
C475        C  0.02084327  0.18980902  0.85845157    -0.09340
C476        C  0.04967424  0.19936602  0.84469665     0.06850
C477        C  0.07772810  0.18503552  0.85554113    -0.03110
C478        C  0.07651746  0.16175812  0.87964536    -0.07560
C479        C  0.04777889  0.15264412  0.89353227     0.05970
C480        C  0.01972867  0.16660011  0.88264781    -0.02580
Br481      Br  0.47940721  0.15448712  0.89984962    -0.02280
H482        H  0.49911269  0.20054995  0.85044966     0.09880
H483        H  0.09817343  0.15106924  0.88797792     0.07900
Br484      Br  0.11857642  0.19787312  0.84022430    -0.02710
C485        C  0.38750375  0.04953526  0.62639880    -0.09340
C486        C  0.39142241  0.02820694  0.65214607     0.06850
C487        C  0.41982525  0.01097844  0.65420420    -0.03110
C488        C  0.44383482  0.01631342  0.63145467    -0.07560
C489        C  0.43991275  0.03813691  0.60609625     0.05970
C490        C  0.41114218  0.05448796  0.60353435    -0.02580
Br491      Br  0.40311747  0.08572063  0.57089015    -0.02280
H492        H  0.36625228  0.06358492  0.62467543     0.09880
H493        H  0.46541476  0.00278086  0.63315670     0.07900
Br494      Br  0.42652494  0.97846685  0.68592391    -0.02710
C495        C  0.20302181  0.03643339  0.62635124    -0.09340
C496        C  0.20077094  0.05875060  0.65176310     0.06850
C497        C  0.17381390  0.07814419  0.65387365    -0.03110
C498        C  0.14926571  0.07398776  0.63156270    -0.07560
C499        C  0.15145145  0.05118671  0.60652973     0.05970
C500        C  0.17890563  0.03261462  0.60385470    -0.02580
Br501      Br  0.18420486  0.99999552  0.57141938    -0.02280
H502        H  0.22323003  0.02084443  0.62464822     0.09880
H503        H  0.12878372  0.08917823  0.63326117     0.07900
Br504      Br  0.17041160  0.11194943  0.68519089    -0.02710
C505        C  0.20307750  0.05350619  0.87258840    -0.09340
C506        C  0.20033533  0.02980806  0.84841714     0.06850
C507        C  0.17314706  0.01022531  0.84779412    -0.03110
C508        C  0.14901761  0.01548068  0.87035331    -0.07560
C509        C  0.15178908  0.03955671  0.89407682     0.05970
C510        C  0.17933568  0.05837112  0.89534843    -0.02580
Br511      Br  0.18509566  0.09250282  0.92623480    -0.02280
H512        H  0.22342098  0.06926863  0.87313631     0.09880
H513        H  0.12832662  0.00017963  0.86988438     0.07900
Br514      Br  0.16848646  0.97478710  0.81840367    -0.02710
C515        C  0.42022566  0.07365247  0.84262965    -0.09340
C516        C  0.39085879  0.05912344  0.84875334     0.06850
C517        C  0.38734086  0.04089445  0.87738065    -0.03110
C518        C  0.41220270  0.03878990  0.89919530    -0.07560
C519        C  0.44167942  0.05257465  0.89262544     0.05970
C520        C  0.44578946  0.06953336  0.86342862    -0.02580
Br521      Br  0.48549407  0.08683064  0.84934637    -0.02280
H522        H  0.42380191  0.08752161  0.82091504     0.09880
H523        H  0.40881144  0.02487032  0.92095715     0.07900
Br524      Br  0.35125311  0.01459053  0.88726275    -0.02710
C525        C  0.16897345  0.38571986  0.48054616    -0.09340
C526        C  0.20073700  0.39424957  0.48611164     0.06850
C527        C  0.20692866  0.42659800  0.99515755    -0.03110
C528        C  0.18237649  0.44869708  0.99689920    -0.07560
C529        C  0.15075197  0.43958155  0.49324756     0.05970
C530        C  0.14423869  0.40704958  0.48600818    -0.02580
Br531      Br  0.10265932  0.38834128  0.48552745    -0.02280
H532        H  0.16256778  0.36181125  0.47308268     0.09880
H533        H  0.18822182  0.47324532  0.00291954     0.07900
Br534      Br  0.24679118  0.44332811  0.00987252    -0.02710
C535        C  0.17169735  0.20650854  0.99784459    -0.09340
C536        C  0.19957642  0.19973094  0.51464480     0.06850
C537        C  0.20252426  0.16932726  0.52902441    -0.03110
C538        C  0.17865404  0.14632541  0.52489345    -0.07560
C539        C  0.15114058  0.15306220  0.50740648     0.05970
C540        C  0.14759316  0.18388776  0.99438337    -0.02580
Br541      Br  0.11146779  0.19653130  0.96972395    -0.02280
H542        H  0.16892232  0.22939614  0.98615032     0.09880
H543        H  0.18134566  0.12316844  0.53608304     0.07900
Br544      Br  0.23703254  0.15817965  0.55656820    -0.02710
C545        C  0.41049334  0.14502330  0.00145620    -0.09340
C546        C  0.44152448  0.15283035  0.49287630     0.06850
C547        C  0.44755864  0.18373369  0.48036812    -0.03110
C548        C  0.42261524  0.20484048  0.47530954    -0.07560
C549        C  0.39166896  0.19764239  0.48541565     0.05970
C550        C  0.38614740  0.16720757  0.99946953    -0.02580
Br551      Br  0.34770080  0.15462272  0.02079194    -0.02280
H552        H  0.40519963  0.12178652  0.01141063     0.09880
H553        H  0.42800775  0.22759021  0.46431092     0.07900
Br554      Br  0.48896618  0.20009773  0.47070201    -0.02710
C555        C  0.41955368  0.38705665  0.99251842    -0.09340
C556        C  0.39372543  0.39219071  0.51325130     0.06850
C557        C  0.39220466  0.42123955  0.53080382    -0.03110
C558        C  0.41554996  0.44468868  0.52633593    -0.07560
C559        C  0.44100449  0.43958919  0.50512012     0.05970
C560        C  0.44305957  0.41016636  0.98846121    -0.02580
Br561      Br  0.47607753  0.40076184  0.95800157    -0.02280
H562        H  0.42096964  0.36523631  0.97832083     0.09880
H563        H  0.41416392  0.46680348  0.54007105     0.07900
Br564      Br  0.36033020  0.42954839  0.56273015    -0.02710
C565        C  0.36785915  0.86801667  0.51258357     0.02940
C566        C  0.37534948  0.83484708  0.01213372    -0.13210
C567        C  0.35406956  0.81309011  0.99814965     0.00440
C568        C  0.32778554  0.82594017  0.98287346    -0.11730
C569        C  0.31502285  0.85484222  0.49352666     0.02940
C570        C  0.33614980  0.87726074  0.50672564    -0.11150
H571        H  0.39778211  0.82656040  0.02106131     0.08530
H572        H  0.31438716  0.81102023  0.96714386     0.06060
H573        H  0.32832558  0.90149311  0.51070323     0.05910
C574        C  0.36733100  0.72347511  0.98570195     0.02940
C575        C  0.37620046  0.75611990  0.99125366    -0.13210
C576        C  0.35363120  0.77753103  0.00292533     0.00440
C577        C  0.32501317  0.76427991  0.01268825    -0.11730
C578        C  0.31266329  0.73764006  0.99660439     0.02940
C579        C  0.33449298  0.71630969  0.98299529    -0.11150
H580        H  0.40000393  0.76472962  0.98789328     0.08530
H581        H  0.30991329  0.77779879  0.02787500     0.06060
H582        H  0.32633651  0.69428393  0.97187522     0.05910
C583        C  0.22563395  0.72378391  0.01312075     0.02940
C584        C  0.21840410  0.75705294  0.01479103    -0.13210
C585        C  0.23905220  0.77922050  0.00058792     0.00440
C586        C  0.26442030  0.76675608  0.98323228    -0.11730
C587        C  0.27758101  0.73752622  0.99190376     0.02940
C588        C  0.25694974  0.71467871  0.00485043    -0.11150
H589        H  0.19655315  0.76518361  0.02548670     0.08530
H590        H  0.27713266  0.78211926  0.96750267     0.06060
H591        H  0.26491074  0.69033333  0.00678473     0.05910
C592        C  0.22533422  0.86824779  0.98739460     0.02940
C593        C  0.25818978  0.87507721  0.98430617    -0.13210
C594        C  0.28001774  0.85479067  0.99908869     0.00440
C595        C  0.26775118  0.82859975  0.01580507    -0.11730
C596        C  0.23925038  0.81480860  0.00610072     0.02940
C597        C  0.21674973  0.83569214  0.99377691    -0.11150
H598        H  0.26654026  0.89571142  0.97118148     0.08540
H599        H  0.28268764  0.81598529  0.03181137     0.06060
H600        H  0.19330681  0.82634436  0.99013842     0.05910
C601        C  0.36635177  0.55875499  0.32299325     0.02940
C602        C  0.33365798  0.55874732  0.33080975    -0.13210
C603        C  0.31244997  0.54449860  0.30903457     0.00440
C604        C  0.32523664  0.53058992  0.28128571    -0.11730
C605        C  0.35308550  0.54254786  0.26806403     0.02940
C606        C  0.37519414  0.55498007  0.28984489    -0.11150
H607        H  0.32531685  0.56791903  0.35382428     0.08530
H608        H  0.31093143  0.51518662  0.26700993     0.06060
H609        H  0.39878652  0.56002947  0.28133690     0.05910
C610        C  0.22461008  0.52962305  0.32260248     0.02940
C611        C  0.25684927  0.53364411  0.33114827    -0.13210
C612        C  0.27742743  0.54820535  0.30914689     0.00440
C613        C  0.26426937  0.55980394  0.28065656    -0.11730
C614        C  0.23729417  0.54553709  0.26764167     0.02940
C615        C  0.21582792  0.53216159  0.28951866    -0.11150
H616        H  0.26518949  0.52708303  0.35492059     0.08530
H617        H  0.27782473  0.57547064  0.26594519     0.06060
H618        H  0.19250436  0.52572694  0.28122313     0.05910
C619        C  0.22506693  0.55752359  0.17738123     0.02940
C620        C  0.21602282  0.55344498  0.21025074    -0.13210
C621        C  0.23741416  0.54006141  0.23178772     0.00440
C622        C  0.26491071  0.52724882  0.21852583    -0.11730
C623        C  0.27814040  0.54015298  0.19046838     0.02940
C624        C  0.25742500  0.55462214  0.16877237    -0.11150
H625        H  0.19254937  0.55891219  0.21868050     0.08530
H626        H  0.27851299  0.51136096  0.23266328     0.06060
H627        H  0.26582397  0.56223502  0.14527434     0.05910
C628        C  0.36696289  0.52840234  0.17789816     0.02940
C629        C  0.37553543  0.53347273  0.21081888    -0.13210
C630        C  0.35343588  0.54666586  0.23208677     0.00440
C631        C  0.32588740  0.55855274  0.21846932    -0.11730
C632        C  0.31323456  0.54455738  0.19063693     0.02940
C633        C  0.33451545  0.53002579  0.16921915    -0.11150
H634        H  0.39907631  0.52905099  0.21945103     0.08530
H635        H  0.31162379  0.57412329  0.23253235     0.06060
H636        H  0.32651476  0.52170999  0.14574156     0.05910
C637        C  0.05035458  0.72593450  0.32113616     0.02940
C638        C  0.03593024  0.75528963  0.32927920    -0.13210
C639        C  0.04015180  0.78159074  0.30911236     0.00440
C640        C  0.06033798  0.77875830  0.28257730    -0.11730
C641        C  0.06915497  0.74878935  0.27007265     0.02940
C642        C  0.06473698  0.72216598  0.29031652    -0.11150
H643        H  0.02181199  0.75764682  0.35102042     0.08530
H644        H  0.06474164  0.80035221  0.26926314     0.06060
H645        H  0.07242943  0.69875618  0.28239603     0.05910
C646        C  0.02807103  0.86830618  0.31790345     0.02940
C647        C  0.03069823  0.83688281  0.32971349    -0.13210
C648        C  0.02089828  0.81110674  0.31045735     0.00440
C649        C  0.00443308  0.81798697  0.28194682    -0.11730
C650        C  0.01217430  0.84630309  0.26526765     0.02940
C651        C  0.02172431  0.87264298  0.28455375    -0.11150
H652        H  0.04156045  0.83242989  0.35291930     0.08530
H653        H  0.99407469  0.79801445  0.26894614     0.06060
H654        H  0.02592510  0.89577641  0.27376022     0.05910
C655        C  0.05896067  0.72522051  0.18170566     0.02940
C656        C  0.06437006  0.72085394  0.21525581    -0.13210
C657        C  0.07636345  0.74629357  0.23433686     0.00440
C658        C  0.08574587  0.77408911  0.21772411    -0.11730
C659        C  0.06972930  0.78186050  0.18924064     0.02940
C660        C  0.05899362  0.75671677  0.16971067    -0.11150
H661        H  0.05787432  0.69840995  0.22637255     0.08530
H662        H  0.09697932  0.79348474  0.23087439     0.06060
H663        H  0.04925253  0.76202116  0.14619141     0.05910
C664        C  0.04079819  0.86699490  0.17923481     0.02940
C665        C  0.02534995  0.87074822  0.20949575    -0.13210
C666        C  0.02064243  0.84402839  0.22968881     0.00440
C667        C  0.03024372  0.81417166  0.21736903    -0.11730
C668        C  0.05091740  0.81155074  0.19118177     0.02940
C669        C  0.05546039  0.83785868  0.17129074    -0.11150
H670        H  0.01683409  0.89403150  0.21683402     0.08530
H671        H  0.02564674  0.79243283  0.23032934     0.06060
H672        H  0.07003054  0.83576902  0.14982594     0.05910
O673        O  0.45633338  0.99405799  0.00102110    -0.86670
O674        O  0.13490008  0.99408595  0.99846731    -0.86840
O675        O  0.04500377  0.95614672  0.44513104    -0.88510
O676        O  0.04681753  0.95545686  0.05184242    -0.87270
O677        O  0.04753074  0.99415829  0.09153412    -0.86860
O678        O  0.04348055  0.99572507  0.40687520    -0.88230
O679        O  0.09677673  0.95532040  0.99688120    -0.86700
O680        O  0.49444517  0.95541477  0.00107670    -0.86290
Zr681      Zr  0.04585883  0.98156167  0.99895596     2.84310
O682        O  0.07769780  0.51343667  0.03264621    -1.08270
O683        O  0.01412061  0.51382645  0.46645525    -1.09000
C684        C  0.46549938  0.96465489  0.00186535     1.06430
C685        C  0.12580831  0.96449841  0.99663341     1.06380
C686        C  0.04374017  0.96621472  0.41558919     1.09360
C687        C  0.04748393  0.96481323  0.08178587     1.07140
H688        H  0.09064961  0.50085620  0.45327340     0.32700
O689        O  0.07773561  0.51422124  0.46695747    -1.29220
H690        H  0.00133003  0.50019359  0.04527197     0.32370
O691        O  0.01435007  0.51376219  0.03191856    -1.30900
O692        O  0.13562417  0.59846452  0.00236770    -0.86670
O693        O  0.45722822  0.59848718  0.99806340    -0.88170
O694        O  0.09793605  0.54340768  0.40842051    -0.86750
O695        O  0.09725098  0.54872109  0.09209193    -0.86790
O696        O  0.49405114  0.54211444  0.09167188    -0.86510
O697        O  0.49567359  0.54918677  0.40781560    -0.86310
O698        O  0.04693907  0.63745682  0.44849562    -0.86680
O699        O  0.04341815  0.63659210  0.05464128    -0.86150
O700        O  0.04809656  0.59871282  0.40872364    -0.87210
O701        O  0.04411694  0.59717673  0.09303364    -0.86370
O702        O  0.13555448  0.54508936  0.44819638    -0.86770
O703        O  0.45751427  0.54750121  0.44704633    -0.86490
O704        O  0.45650052  0.54409964  0.05192557    -0.86140
O705        O  0.13508777  0.54724859  0.05236852    -0.86550
O706        O  0.09752569  0.63700832  0.00409595    -0.86840
O707        O  0.49532590  0.63741573  0.99844948    -0.88180
Zr708      Zr  0.10922953  0.54635559  0.00026416     2.83100
Zr709      Zr  0.48275910  0.54616010  0.99975756     2.83500
Zr710      Zr  0.04653695  0.54681867  0.43480420     2.84090
Zr711      Zr  0.04572878  0.54582079  0.06543254     2.83360
Zr712      Zr  0.04610145  0.61097366  0.00118370     2.84220
O713        O  0.01379494  0.57857763  0.03358573    -1.08750
O714        O  0.07836967  0.57942841  0.46775881    -1.08250
C715        C  0.12650369  0.62787179  0.00411812     1.06410
C716        C  0.46637588  0.62807141  0.99686330     1.09020
C717        C  0.12674124  0.54324981  0.41841007     1.06580
C718        C  0.12618876  0.54864472  0.08217562     1.06940
C719        C  0.46518205  0.54201478  0.08171915     1.06520
C720        C  0.46670746  0.54948106  0.41729012     1.06070
C721        C  0.04754970  0.62801497  0.41862399     1.06500
C722        C  0.04341277  0.62668424  0.08423807     1.06010
H723        H  0.00206037  0.59209968  0.45431390     0.32690
O724        O  0.01484714  0.57870228  0.46781987    -1.29850
H725        H  0.09041787  0.59180948  0.04711056     0.32710
O726        O  0.07750726  0.57845391  0.03329764    -1.31230
C727        C  0.02706021  0.91329994  0.10254507    -0.09340
C728        C  0.04682333  0.93996155  0.10701700     0.06850
C729        C  0.06424436  0.94286981  0.13605086    -0.03110
C730        C  0.06136987  0.91941498  0.15993924    -0.07560
C731        C  0.04155149  0.89289653  0.15527640     0.05970
C732        C  0.02429262  0.88995004  0.12635157    -0.02580
Br733      Br  0.49604792  0.85468941  0.11861142    -0.02280
H734        H  0.01322972  0.91087809  0.08065318     0.09880
H735        H  0.07523343  0.92143120  0.18183725     0.07900
Br736      Br  0.09398399  0.97693423  0.14350007    -0.02710
C737        C  0.02828130  0.70071040  0.13576066    -0.09340
C738        C  0.05186940  0.69786379  0.15950971     0.06850
C739        C  0.07086546  0.67028822  0.15912183    -0.03110
C740        C  0.06668878  0.64701079  0.13509779    -0.07560
C741        C  0.04443250  0.65080346  0.11047080     0.05970
C742        C  0.02470034  0.67769294  0.11117888    -0.02580
Br743      Br  0.99218412  0.68372182  0.07964842    -0.02280
H744        H  0.01292511  0.72125235  0.13586605     0.09880
H745        H  0.08208220  0.62647472  0.13473746     0.07900
Br746      Br  0.10532027  0.66433746  0.18829646    -0.02710
C747        C  0.01488437  0.94251031  0.36931519    -0.09340
C748        C  0.04142108  0.94227608  0.38937727     0.06850
C749        C  0.06524427  0.91977736  0.38349737    -0.03110
C750        C  0.06124086  0.89654397  0.35923556    -0.07560
C751        C  0.03392848  0.89578205  0.34005013     0.05970
C752        C  0.01095171  0.91957835  0.34483708    -0.02580
Br753      Br  0.47253552  0.92062330  0.32049946    -0.02280
H754        H  0.99667583  0.96013436  0.37330385     0.09880
H755        H  0.07944844  0.87890344  0.35542529     0.07900
Br756      Br  0.10434772  0.92126847  0.40645082    -0.02710
C757        C  0.02085820  0.68981580  0.35843409    -0.09340
C758        C  0.04969408  0.69936365  0.34468411     0.06850
C759        C  0.07774191  0.68502324  0.35553028    -0.03110
C760        C  0.07652088  0.66174781  0.37963566    -0.07560
C761        C  0.04777757  0.65264566  0.39352039     0.05970
C762        C  0.01973308  0.66660822  0.38263042    -0.02580
Br763      Br  0.47938182  0.65449578  0.39981690    -0.02280
H764        H  0.49910286  0.70055583  0.35042122     0.09880
H765        H  0.09817226  0.65105175  0.38797124     0.07900
Br766      Br  0.11859517  0.69784444  0.34021341    -0.02710
C767        C  0.38749870  0.54948588  0.12638095    -0.09340
C768        C  0.39143190  0.52818049  0.15214542     0.06850
C769        C  0.41984893  0.51097632  0.15421677    -0.03110
C770        C  0.44385763  0.51631815  0.13146732    -0.07560
C771        C  0.43992124  0.53812072  0.10609262     0.05970
C772        C  0.41113449  0.55444143  0.10351408    -0.02580
Br773      Br  0.40307559  0.58563407  0.07083974    -0.02280
H774        H  0.36623591  0.56351606  0.12464369     0.09880
H775        H  0.46544834  0.50280484  0.13318165     0.07900
Br776      Br  0.42657125  0.47848310  0.18595076    -0.02710
C777        C  0.20302518  0.53639925  0.12634202    -0.09340
C778        C  0.20078082  0.55873285  0.15173998     0.06850
C779        C  0.17382852  0.57813374  0.15384006    -0.03110
C780        C  0.14927626  0.57396626  0.13153597    -0.07560
C781        C  0.15145412  0.55114754  0.10651863     0.05970
C782        C  0.17890553  0.53257023  0.10385070    -0.02580
Br783      Br  0.18419667  0.49993298  0.07143177    -0.02280
H784        H  0.22323060  0.52080586  0.12464680     0.09880
H785        H  0.12879774  0.58916235  0.13322634     0.07900
Br786      Br  0.17044004  0.61196342  0.18513189    -0.02710
C787        C  0.20306456  0.55350609  0.37257744    -0.09340
C788        C  0.20031519  0.52981474  0.34840018     0.06850
C789        C  0.17312073  0.51024072  0.34777338    -0.03110
C790        C  0.14899338  0.51549805  0.37033512    -0.07560
C791        C  0.15177216  0.53956755  0.39406503     0.05970
C792        C  0.17932485  0.55837302  0.39533968    -0.02580
Br793      Br  0.18509763  0.59249633  0.42623304    -0.02280
H794        H  0.22341283  0.56926200  0.37312891     0.09880
H795        H  0.12829796  0.50020333  0.36986277     0.07900
Br796      Br  0.16844821  0.47481075  0.31837452    -0.02710
C797        C  0.42021276  0.57363460  0.34262806    -0.09340
C798        C  0.39084817  0.55910143  0.34875231     0.06850
C799        C  0.38733273  0.54087305  0.37738013    -0.03110
C800        C  0.41219526  0.53877244  0.39919475    -0.07560
C801        C  0.44167016  0.55256136  0.39262416     0.05970
C802        C  0.44577733  0.56951971  0.36342661    -0.02580
Br803      Br  0.48547896  0.58682218  0.34934180    -0.02280
H804        H  0.42378675  0.58750377  0.32091306     0.09880
H805        H  0.40880599  0.52485342  0.42095725     0.07900
Br806      Br  0.35124705  0.51456656  0.38726266    -0.02710
C807        C  0.16893980  0.88564943  0.98058883    -0.09340
C808        C  0.20070563  0.89417165  0.98615240     0.06850
C809        C  0.20694853  0.92663960  0.49519748    -0.03110
C810        C  0.18240448  0.94874946  0.49692946    -0.07560
C811        C  0.15073321  0.93952609  0.99326316     0.05970
C812        C  0.14421059  0.90699365  0.98602837    -0.02580
Br813      Br  0.10262184  0.88830797  0.98550989    -0.02280
H814        H  0.16252846  0.86173869  0.97313748     0.09880
H815        H  0.18825453  0.97329410  0.50295952     0.07900
Br816      Br  0.24680880  0.94333896  0.50995349    -0.02710
C817        C  0.17168671  0.70651775  0.49777007    -0.09340
C818        C  0.19964859  0.69961532  0.01459552     0.06850
C819        C  0.20259477  0.66921438  0.02898321    -0.03110
C820        C  0.17871766  0.64621712  0.02486384    -0.07560
C821        C  0.15120932  0.65295263  0.00736708     0.05970
C822        C  0.14759042  0.68388925  0.49429861    -0.02580
Br823      Br  0.11151812  0.69646986  0.46952534    -0.02280
H824        H  0.16893510  0.72938668  0.48603228     0.09880
H825        H  0.18140024  0.62306559  0.03606734     0.07900
Br826      Br  0.23711383  0.65805964  0.05651080    -0.02710
C827        C  0.41045281  0.64501371  0.50144395    -0.09340
C828        C  0.44156943  0.65283724  0.99288453     0.06850
C829        C  0.44760792  0.68373822  0.98037175    -0.03110
C830        C  0.42266692  0.70484785  0.97531435    -0.07560
C831        C  0.39172158  0.69765008  0.98542124     0.05970
C832        C  0.38610638  0.66719821  0.49945712    -0.02580
Br833      Br  0.34766331  0.65461751  0.52078843    -0.02280
H834        H  0.40516168  0.62177887  0.51140439     0.09880
H835        H  0.42805843  0.72759826  0.96431584     0.07900
Br836      Br  0.48901735  0.70009304  0.97069706    -0.02710
C837        C  0.41955561  0.88705670  0.49250589    -0.09340
C838        C  0.39368444  0.89219819  0.01324869     0.06850
C839        C  0.39215815  0.92125446  0.03078879    -0.03110
C840        C  0.41550301  0.94470417  0.02631580    -0.07560
C841        C  0.44096180  0.93959924  0.00510624     0.05970
C842        C  0.44306054  0.91016843  0.48845143    -0.02580
Br843      Br  0.47607481  0.90077417  0.45798452    -0.02280
H844        H  0.42096960  0.86523989  0.47830246     0.09880
H845        H  0.41411522  0.96682224  0.04004521     0.07900
Br846      Br  0.36027950  0.92957322  0.06270816    -0.02710
C847        C  0.36783067  0.86800947  0.01260394     0.02940
C848        C  0.37535931  0.83485059  0.51210876    -0.13210
C849        C  0.35406801  0.81310702  0.49812179     0.00440
C850        C  0.32779239  0.82597380  0.48284258    -0.11730
C851        C  0.31499871  0.85479804  0.99356006     0.02940
C852        C  0.33611363  0.87723260  0.00675222    -0.11150
H853        H  0.39778511  0.82654976  0.52104065     0.08530
H854        H  0.31438628  0.81106259  0.46711033     0.06060
H855        H  0.32827484  0.90146055  0.01072514     0.05910
C856        C  0.36727890  0.72347319  0.48571538     0.02940
C857        C  0.37616251  0.75611909  0.49124289    -0.13210
C858        C  0.35360742  0.77754891  0.50290767     0.00440
C859        C  0.32498785  0.76431856  0.51269106    -0.11730
C860        C  0.31261913  0.73767256  0.49663256     0.02940
C861        C  0.33443500  0.71632109  0.48303043    -0.11150
H862        H  0.39996714  0.76471906  0.48786866     0.08530
H863        H  0.30990043  0.77785513  0.52787459     0.06060
H864        H  0.32626291  0.69429624  0.47192122     0.05910
C865        C  0.22557192  0.72388512  0.51315188     0.02940
C866        C  0.21836629  0.75715975  0.51481094    -0.13210
C867        C  0.23903719  0.77930719  0.50061048     0.00440
C868        C  0.26439598  0.76681970  0.48325909    -0.11730
C869        C  0.27753447  0.73758249  0.49193774     0.02940
C870        C  0.25688361  0.71475421  0.50488793    -0.11150
H871        H  0.19652015  0.76531073  0.52550092     0.08530
H872        H  0.27712423  0.78217127  0.46753209     0.06060
H873        H  0.26482651  0.69040327  0.50682983     0.05910
C874        C  0.22536137  0.86832820  0.48737434     0.02940
C875        C  0.25821892  0.87514887  0.48428168    -0.13210
C876        C  0.28004286  0.85485576  0.49906370     0.00440
C877        C  0.26776961  0.82867772  0.51579507    -0.11730
C878        C  0.23925890  0.81489613  0.50610765     0.02940
C879        C  0.21676585  0.83578147  0.49377933    -0.11150
H880        H  0.26657300  0.89578183  0.47115678     0.08540
H881        H  0.28270519  0.81606419  0.53180297     0.06060
H882        H  0.19331703  0.82644190  0.49015955     0.05910
C883        C  0.36635215  0.55875519  0.82299831     0.02940
C884        C  0.33365835  0.55875009  0.83081627    -0.13210
C885        C  0.31244799  0.54450403  0.80904125     0.00440
C886        C  0.32523280  0.53059307  0.78129286    -0.11730
C887        C  0.35308245  0.54254764  0.76807006     0.02940
C888        C  0.37519289  0.55497857  0.78984971    -0.11150
H889        H  0.32531894  0.56792211  0.85383132     0.08530
H890        H  0.31092547  0.51519131  0.76701769     0.06060
H891        H  0.39878545  0.56002562  0.78134078     0.05910
C892        C  0.22460862  0.52962715  0.82260875     0.02940
C893        C  0.25684719  0.53365161  0.83115537    -0.13210
C894        C  0.27742528  0.54821277  0.80915382     0.00440
C895        C  0.26426705  0.55980929  0.78066224    -0.11730
C896        C  0.23729170  0.54554166  0.76764790     0.02940
C897        C  0.21582623  0.53216593  0.78952518    -0.11150
H898        H  0.26518758  0.52709032  0.85492756     0.08530
H899        H  0.27782217  0.57547559  0.76595014     0.06060
H900        H  0.19250312  0.52572970  0.78122955     0.05910
C901        C  0.22506500  0.55752507  0.67738682     0.02940
C902        C  0.21602029  0.55344762  0.71025637    -0.13210
C903        C  0.23741078  0.54006346  0.73179421     0.00440
C904        C  0.26490594  0.52724736  0.71853292    -0.11730
C905        C  0.27813648  0.54014889  0.69047464     0.02940
C906        C  0.25742256  0.55461923  0.66877809    -0.11150
H907        H  0.19254753  0.55891806  0.71868594     0.08530
H908        H  0.27850702  0.51135904  0.73267129     0.06060
H909        H  0.26582265  0.56223157  0.64528027     0.05910
C910        C  0.36695818  0.52839633  0.67790491     0.02940
C911        C  0.37553140  0.53346792  0.71082519    -0.13210
C912        C  0.35343241  0.54666284  0.73209251     0.00440
C913        C  0.32588382  0.55854906  0.71847462    -0.11730
C914        C  0.31323054  0.54455201  0.69064336     0.02940
C915        C  0.33451087  0.53001928  0.66922611    -0.11150
H916        H  0.39907243  0.52904594  0.71945696     0.08530
H917        H  0.31162040  0.57412046  0.73253678     0.06060
H918        H  0.32651008  0.52170314  0.64574866     0.05910
C919        C  0.05035541  0.72592515  0.82114710     0.02940
C920        C  0.03592472  0.75527857  0.82928725    -0.13210
C921        C  0.04014266  0.78157979  0.80911854     0.00440
C922        C  0.06033256  0.77875004  0.78258670    -0.11730
C923        C  0.06915415  0.74878287  0.77008281     0.02940
C924        C  0.06473864  0.72215855  0.79032686    -0.11150
H925        H  0.02180549  0.75763474  0.85102786     0.08530
H926        H  0.06473586  0.80034451  0.76927332     0.06060
H927        H  0.07243451  0.69874996  0.78240630     0.05910
C928        C  0.02806550  0.86829485  0.81790699     0.02940
C929        C  0.03068704  0.83687134  0.82971799    -0.13210
C930        C  0.02088824  0.81109590  0.81046058     0.00440
C931        C  0.00442861  0.81797788  0.78194637    -0.11730
C932        C  0.01217177  0.84629548  0.76526942     0.02940
C933        C  0.02172233  0.87263321  0.78455720    -0.11150
H934        H  0.04154561  0.83241756  0.85292543     0.08530
H935        H  0.99407227  0.79800603  0.76894290     0.06060
H936        H  0.02592667  0.89576650  0.77376466     0.05910
C937        C  0.05896314  0.72522537  0.68171314     0.02940
C938        C  0.06437033  0.72085460  0.71526295    -0.13210
C939        C  0.07636536  0.74629078  0.73434712     0.00440
C940        C  0.08575116  0.77408788  0.71773771    -0.11730
C941        C  0.06974072  0.78186274  0.68925096     0.02940
C942        C  0.05900460  0.75672149  0.66971886    -0.11150
H943        H  0.05787136  0.69841029  0.72637727     0.08530
H944        H  0.09698356  0.79348185  0.73089150     0.06060
H945        H  0.04926708  0.76202810  0.64619849     0.05910
C946        C  0.04080170  0.86699573  0.67923933     0.02940
C947        C  0.02534922  0.87074601  0.70949890    -0.13210
C948        C  0.02064266  0.84402467  0.72969107     0.00440
C949        C  0.03024931  0.81417016  0.71737226    -0.11730
C950        C  0.05092853  0.81155297  0.69118982     0.02940
C951        C  0.05546962  0.83786136  0.67129802    -0.11150
H952        H  0.01682941  0.89402787  0.71683683     0.08530
H953        H  0.02565188  0.79243042  0.73033091     0.06060
H954        H  0.07004238  0.83577338  0.64983497     0.05910
O955        O  0.45635367  0.99405316  0.50102432    -0.86670
O956        O  0.13490025  0.99412930  0.49847026    -0.86840
O957        O  0.04500284  0.95613706  0.94512703    -0.88510
O958        O  0.04681617  0.95546503  0.55184651    -0.87270
O959        O  0.04752386  0.99416638  0.59153846    -0.86860
O960        O  0.04348750  0.99571519  0.90687043    -0.88230
O961        O  0.09678760  0.95535271  0.49688348    -0.86700
O962        O  0.49447972  0.95542437  0.50108044    -0.86290
Zr963      Zr  0.04585729  0.98157294  0.49896090     2.84310
O964        O  0.07771577  0.51348455  0.53263711    -1.08270
O965        O  0.01410939  0.51380916  0.96645901    -1.09000
C966        C  0.46553090  0.96465393  0.50187117     1.06430
C967        C  0.12581668  0.96454060  0.49663339     1.06380
C968        C  0.04374262  0.96620512  0.91558533     1.09360
C969        C  0.04748006  0.96482085  0.58179032     1.07140
H970        H  0.09063034  0.50080911  0.95327346     0.32700
O971        O  0.07772005  0.51417670  0.96695879    -1.29220
H972        H  0.00134729  0.50020972  0.54526895     0.32370
O973        O  0.01436224  0.51378248  0.53191479    -1.30900
O974        O  0.13558705  0.59856113  0.50236961    -0.86670
O975        O  0.45719615  0.59848136  0.49806740    -0.88170
O976        O  0.09793349  0.54337775  0.90842648    -0.86750
O977        O  0.09725674  0.54875828  0.59208357    -0.86790
O978        O  0.49404235  0.54211681  0.59167793    -0.86510
O979        O  0.49568169  0.54917958  0.90781159    -0.86310
O980        O  0.04697100  0.63743524  0.94850588    -0.86680
O981        O  0.04338760  0.63661727  0.55463709    -0.86150
O982        O  0.04810581  0.59869264  0.90873189    -0.87210
O983        O  0.04411095  0.59720135  0.59302799    -0.86370
O984        O  0.13554935  0.54502716  0.94820579    -0.86770
O985        O  0.45752364  0.54750032  0.94704408    -0.86490
O986        O  0.45649073  0.54409838  0.55193207    -0.86140
O987        O  0.13509553  0.54731252  0.55236043    -0.86550
O988        O  0.09746821  0.63708386  0.50409657    -0.86840
O989        O  0.49528604  0.63741782  0.49845480    -0.88180
Zr990      Zr  0.10923620  0.54641985  0.50025635     2.83100
Zr991      Zr  0.48274620  0.54616252  0.49976253     2.83500
Zr992      Zr  0.04653542  0.54679414  0.93480940     2.84090
Zr993      Zr  0.04573325  0.54584902  0.56542668     2.83360
Zr994      Zr  0.04607297  0.61100213  0.50117710     2.84220
O995        O  0.01378295  0.57859441  0.53358263    -1.08750
O996        O  0.07838268  0.57938379  0.96776708    -1.08250
C997        C  0.12645037  0.62796480  0.50412511     1.06410
C998        C  0.46633671  0.62806789  0.49686699     1.09020
C999        C  0.12673752  0.54320599  0.91841828     1.06580
C1000       C  0.12619483  0.54869415  0.58216779     1.06940
C1001       C  0.46517337  0.54201452  0.58172542     1.06520
C1002       C  0.46671565  0.54947761  0.91728745     1.06070
C1003       C  0.04757098  0.62799523  0.91863342     1.06500
C1004       C  0.04339502  0.62670834  0.58423357     1.06010
H1005       H  0.00207705  0.59208957  0.95432299     0.32690
O1006       O  0.01485948  0.57868695  0.96782794    -1.29850
H1007       H  0.09040053  0.59185884  0.54710460     0.32710
O1008       O  0.07749593  0.57849803  0.53329086    -1.31230
C1009       C  0.02705903  0.91330455  0.60254987    -0.09340
C1010       C  0.04682072  0.93996758  0.60702161     0.06850
C1011       C  0.06424329  0.94287448  0.63605467    -0.03110
C1012       C  0.06137123  0.91941805  0.65994245    -0.07560
C1013       C  0.04155383  0.89289846  0.65528022     0.05970
C1014       C  0.02429407  0.88995279  0.62635564    -0.02580
Br1015     Br  0.49604744  0.85471247  0.61859352    -0.02280
H1016       H  0.01322780  0.91088278  0.58065849     0.09880
H1017       H  0.07523593  0.92143417  0.68183968     0.07900
Br1018     Br  0.09398262  0.97693923  0.64350265    -0.02710
C1019       C  0.02827392  0.70072618  0.63577068    -0.09340
C1020       C  0.05186550  0.69787323  0.65951521     0.06850
C1021       C  0.07086038  0.67029746  0.65911925    -0.03110
C1022       C  0.06667993  0.64702595  0.63509080    -0.07560
C1023       C  0.04441986  0.65082447  0.61046818     0.05970
C1024       C  0.02468835  0.67771403  0.61118474    -0.02580
Br1025     Br  0.99216724  0.68374974  0.57966114    -0.02280
H1026       H  0.01291924  0.72126938  0.63588275     0.09880
H1027       H  0.08207278  0.62648947  0.63472411     0.07900
Br1028     Br  0.10531766  0.66433906  0.68828912    -0.02710
C1029       C  0.01488891  0.94250580  0.86930910    -0.09340
C1030       C  0.04142262  0.94226649  0.88937487     0.06850
C1031       C  0.06524074  0.91976055  0.88350258    -0.03110
C1032       C  0.06123577  0.89652682  0.85924175    -0.07560
C1033       C  0.03392578  0.89577009  0.84005261     0.05970
C1034       C  0.01095364  0.91957197  0.84483381    -0.02580
Br1035     Br  0.47252979  0.92058487  0.82050591    -0.02280
H1036       H  0.99668396  0.96013455  0.87329364     0.09880
H1037       H  0.07943944  0.87888120  0.85543618     0.07900
Br1038     Br  0.10433784  0.92123916  0.90646892    -0.02710
C1039       C  0.02086817  0.68980403  0.85845387    -0.09340
C1040       C  0.04970080  0.69935418  0.84469770     0.06850
C1041       C  0.07775114  0.68501398  0.85553875    -0.03110
C1042       C  0.07653544  0.66173512  0.87964195    -0.07560
C1043       C  0.04779508  0.65262903  0.89353087     0.05970
C1044       C  0.01974854  0.66659381  0.88264865    -0.02580
Br1045     Br  0.47941072  0.65450502  0.89981272    -0.02280
H1046       H  0.49913933  0.70056306  0.85041937     0.09880
H1047       H  0.09818884  0.65103950  0.88797256     0.07900
Br1048     Br  0.11860153  0.69784013  0.84021819    -0.02710
C1049       C  0.38749392  0.54948694  0.62639136    -0.09340
C1050       C  0.39142630  0.52817683  0.65215200     0.06850
C1051       C  0.41984194  0.51097028  0.65422035    -0.03110
C1052       C  0.44384986  0.51631273  0.63147043    -0.07560
C1053       C  0.43991397  0.53811926  0.60609924     0.05970
C1054       C  0.41112942  0.55444411  0.60352473    -0.02580
Br1055     Br  0.40307503  0.58564519  0.57085720    -0.02280
H1056       H  0.36623237  0.56351950  0.62465743     0.09880
H1057       H  0.46543959  0.50279741  0.63318182     0.07900
Br1058     Br  0.42656339  0.47847453  0.68595183    -0.02710
C1059       C  0.20301985  0.53641425  0.62634332    -0.09340
C1060       C  0.20078005  0.55874440  0.65174485     0.06850
C1061       C  0.17383451  0.57815523  0.65384434    -0.03110
C1062       C  0.14928469  0.57400205  0.63153468    -0.07560
C1063       C  0.15145851  0.55118746  0.60651325     0.05970
C1064       C  0.17890248  0.53259911  0.60384724    -0.02580
Br1065     Br  0.18418359  0.49996402  0.57142485    -0.02280
H1066       H  0.22321959  0.52081325  0.62464852     0.09880
H1067       H  0.12881118  0.58920511  0.63322466     0.07900
Br1068     Br  0.17045237  0.61197896  0.68514356    -0.02710
C1069       C  0.20305656  0.55349419  0.87258858    -0.09340
C1070       C  0.20031343  0.52980742  0.84840596     0.06850
C1071       C  0.17312442  0.51022542  0.84777491    -0.03110
C1072       C  0.14899610  0.51547017  0.87033824    -0.07560
C1073       C  0.15176908  0.53953446  0.89407365     0.05970
C1074       C  0.17931581  0.55834838  0.89535242    -0.02580
Br1075     Br  0.18507696  0.59246627  0.92625435    -0.02280
H1076       H  0.22340035  0.56925598  0.87314334     0.09880
H1077       H  0.12830456  0.50017008  0.86986256     0.07900
Br1078     Br  0.16846054  0.47480107  0.81836781    -0.02710
C1079       C  0.42021487  0.57363441  0.84262988    -0.09340
C1080       C  0.39085050  0.55910113  0.84875577     0.06850
C1081       C  0.38733725  0.54087175  0.87738309    -0.03110
C1082       C  0.41220180  0.53876958  0.89919539    -0.07560
C1083       C  0.44167644  0.55255872  0.89262318     0.05970
C1084       C  0.44578106  0.56951888  0.86342652    -0.02580
Br1085     Br  0.48548138  0.58682384  0.84934167    -0.02280
H1086       H  0.42378720  0.58750437  0.82091510     0.09880
H1087       H  0.40881416  0.52484955  0.92095748     0.07900
Br1088     Br  0.35125126  0.51456638  0.88726728    -0.02710
C1089       C  0.16897440  0.88572350  0.48053450    -0.09340
C1090       C  0.20073526  0.89425023  0.48611855     0.06850
C1091       C  0.20692741  0.92656563  0.99521309    -0.03110
C1092       C  0.18239024  0.94868437  0.99693513    -0.07560
C1093       C  0.15075002  0.93958093  0.49325240     0.05970
C1094       C  0.14423815  0.90705251  0.48599344    -0.02580
Br1095     Br  0.10265742  0.88834869  0.48547515    -0.02280
H1096       H  0.16257298  0.86181748  0.47305722     0.09880
H1097       H  0.18824802  0.97323017  0.00295292     0.07900
Br1098     Br  0.24678998  0.94326683  0.00996149    -0.02710
C1099       C  0.17177043  0.70639378  0.99770809    -0.09340
C1100       C  0.19957185  0.69973232  0.51464337     0.06850
C1101       C  0.20251530  0.66933187  0.52903042    -0.03110
C1102       C  0.17864705  0.64632877  0.52489527    -0.07560
C1103       C  0.15114040  0.65306154  0.50739556     0.05970
C1104       C  0.14767407  0.68376748  0.99424025    -0.02580
Br1105     Br  0.11162459  0.69632603  0.96942175    -0.02280
H1106       H  0.16902424  0.72925681  0.98595709     0.09880
H1107       H  0.18133442  0.62317432  0.53609133     0.07900
Br1108     Br  0.23701509  0.65819153  0.55658837    -0.02710
C1109       C  0.41050064  0.64502594  0.00144795    -0.09340
C1110       C  0.44152274  0.65282925  0.49288509     0.06850
C1111       C  0.44755539  0.68373046  0.48037087    -0.03110
C1112       C  0.42261141  0.70483653  0.47531199    -0.07560
C1113       C  0.39166638  0.69764026  0.48542341     0.05970
C1114       C  0.38615848  0.66721225  0.99946096    -0.02580
Br1115     Br  0.34771794  0.65464400  0.02080515    -0.02280
H1116       H  0.40520716  0.62179316  0.01141172     0.09880
H1117       H  0.42800251  0.72758439  0.46430872     0.07900
Br1118     Br  0.48896186  0.70009263  0.47069703    -0.02710
C1119       C  0.41951555  0.88706152  0.99250651    -0.09340
C1120       C  0.39372382  0.89219163  0.51324749     0.06850
C1121       C  0.39220316  0.92123964  0.53080144    -0.03110
C1122       C  0.41554818  0.94468935  0.52633419    -0.07560
C1123       C  0.44100245  0.93959114  0.50511769     0.05970
C1124       C  0.44301910  0.91017325  0.98844583    -0.02580
Br1125     Br  0.47603330  0.90077086  0.95798147    -0.02280
H1126       H  0.42093250  0.86524057  0.97831001     0.09880
H1127       H  0.41416225  0.96680346  0.54007048     0.07900
Br1128     Br  0.36032930  0.92954606  0.56272908    -0.02710
C1129       C  0.86786031  0.36801656  0.51258812     0.02940
C1130       C  0.87534937  0.33484514  0.01214405    -0.13210
C1131       C  0.85407018  0.31308888  0.99815779     0.00440
C1132       C  0.82778736  0.32593958  0.98288010    -0.11730
C1133       C  0.81502459  0.35484250  0.49352928     0.02940
C1134       C  0.83615118  0.37726087  0.50672916    -0.11150
H1135       H  0.89778147  0.32655798  0.02107257     0.08530
H1136       H  0.81438927  0.31101983  0.96715018     0.06060
H1137       H  0.82832698  0.40149331  0.51070622     0.05910
C1138       C  0.86733328  0.22347602  0.98570062     0.02940
C1139       C  0.87620227  0.25611996  0.99125843    -0.13210
C1140       C  0.85363188  0.27752954  0.00293074     0.00440
C1141       C  0.82501275  0.26427731  0.01268883    -0.11730
C1142       C  0.81266470  0.23763963  0.99659989     0.02940
C1143       C  0.83449554  0.21631145  0.98298930    -0.11150
H1144       H  0.90000599  0.26473029  0.98790167     0.08530
H1145       H  0.80991069  0.27779493  0.02787469     0.06060
H1146       H  0.82633990  0.19428791  0.97186409     0.05910
C1147       C  0.72563733  0.22378371  0.01311710     0.02940
C1148       C  0.71840775  0.25705257  0.01478750    -0.13210
C1149       C  0.73905485  0.27921990  0.00058283     0.00440
C1150       C  0.76442234  0.26675577  0.98322587    -0.11730
C1151       C  0.77758301  0.23752549  0.99189654     0.02940
C1152       C  0.75695226  0.21467824  0.00484444    -0.11150
H1153       H  0.69655759  0.26518341  0.02548479     0.08530
H1154       H  0.77713412  0.28211905  0.96749558     0.06060
H1155       H  0.76491323  0.19033283  0.00677865     0.05910
C1156       C  0.72533657  0.36824748  0.98739086     0.02940
C1157       C  0.75819262  0.37507632  0.98430583    -0.13210
C1158       C  0.78001911  0.35479049  0.99909190     0.00440
C1159       C  0.76775118  0.32859894  0.01580622    -0.11730
C1160       C  0.73925235  0.31480755  0.00609677     0.02940
C1161       C  0.71675318  0.33569053  0.99376955    -0.11150
H1162       H  0.76654533  0.39570666  0.97117689     0.08540
H1163       H  0.78268645  0.31598348  0.03181317     0.06060
H1164       H  0.69331301  0.32633921  0.99012361     0.05910
C1165       C  0.86635854  0.05876537  0.32299318     0.02940
C1166       C  0.83366527  0.05875787  0.33081151    -0.13210
C1167       C  0.81245645  0.04450663  0.30903902     0.00440
C1168       C  0.82524185  0.03059714  0.28128971    -0.11730
C1169       C  0.85308963  0.04255546  0.26806551     0.02940
C1170       C  0.87519909  0.05498970  0.28984446    -0.11150
H1171       H  0.82532536  0.06793028  0.35382624     0.08530
H1172       H  0.81093647  0.01519200  0.26701610     0.06060
H1173       H  0.89879083  0.06003973  0.28133492     0.05910
C1174       C  0.72461867  0.02962500  0.32261581     0.02940
C1175       C  0.75685814  0.03364970  0.33115913    -0.13210
C1176       C  0.77743362  0.04821098  0.30915494     0.00440
C1177       C  0.76427228  0.05980741  0.28066551    -0.11730
C1178       C  0.73729763  0.04553744  0.26765320     0.02940
C1179       C  0.71583407  0.03216086  0.28953236    -0.11150
H1180       H  0.76520060  0.02709077  0.35493123     0.08530
H1181       H  0.77782495  0.07547480  0.26595242     0.06060
H1182       H  0.69251052  0.02572337  0.28123888     0.05910
C1183       C  0.72506014  0.05752865  0.17739555     0.02940
C1184       C  0.71601896  0.05344382  0.21026511    -0.13210
C1185       C  0.73741484  0.04006315  0.23179902     0.00440
C1186       C  0.76491301  0.02725778  0.21853348    -0.11730
C1187       C  0.77813815  0.04016786  0.19047670     0.02940
C1188       C  0.75741845  0.05463564  0.16878425    -0.11150
H1189       H  0.69254473  0.05890373  0.21869732     0.08530
H1190       H  0.77851955  0.01137118  0.23266784     0.06060
H1191       H  0.76581436  0.06225297  0.14528657     0.05910
C1192       C  0.86695791  0.02841890  0.17789574     0.02940
C1193       C  0.87553309  0.03348215  0.21081673    -0.13210
C1194       C  0.85343646  0.04667505  0.23208832     0.00440
C1195       C  0.82588752  0.05856544  0.21847490    -0.11730
C1196       C  0.81323195  0.04457521  0.19064108     0.02940
C1197       C  0.83451078  0.03004788  0.16921821    -0.11150
H1198       H  0.89907402  0.02905388  0.21944581     0.08530
H1199       H  0.81162590  0.07413478  0.23254151     0.06060
H1200       H  0.82650863  0.02173775  0.14573915     0.05910
C1201       C  0.55032765  0.22593877  0.32114282     0.02940
C1202       C  0.53589696  0.25529239  0.32928025    -0.13210
C1203       C  0.54011745  0.28159199  0.30911058     0.00440
C1204       C  0.56030920  0.27875970  0.28258008    -0.11730
C1205       C  0.56913213  0.24879111  0.27007997     0.02940
C1206       C  0.56471404  0.22216910  0.29032527    -0.11150
H1207       H  0.52177638  0.25765001  0.35101980     0.08530
H1208       H  0.56471499  0.30035301  0.26926573     0.06060
H1209       H  0.57241145  0.19875985  0.28240832     0.05910
C1210       C  0.52804601  0.36830730  0.31789934     0.02940
C1211       C  0.53066227  0.33688329  0.32971081    -0.13210
C1212       C  0.52086441  0.31110877  0.31045157     0.00440
C1213       C  0.50440835  0.31799197  0.28193599    -0.11730
C1214       C  0.51215856  0.34630715  0.26525912     0.02940
C1215       C  0.52170916  0.37264498  0.28454776    -0.11150
H1216       H  0.54151708  0.33242804  0.35291980     0.08530
H1217       H  0.49405102  0.29802106  0.26893191     0.06060
H1218       H  0.52591918  0.39577702  0.27375479     0.05910
C1219       C  0.55895386  0.22522055  0.18171274     0.02940
C1220       C  0.56435752  0.22085438  0.21526382    -0.13210
C1221       C  0.57634873  0.24629380  0.23434630     0.00440
C1222       C  0.58573571  0.27408858  0.21773494    -0.11730
C1223       C  0.56972573  0.28185996  0.18924750     0.02940
C1224       C  0.55899153  0.25671630  0.16971648    -0.11150
H1225       H  0.55785869  0.19841101  0.22638009     0.08530
H1226       H  0.59696666  0.29348409  0.23088778     0.06060
H1227       H  0.54925468  0.26202036  0.14619525     0.05910
C1228       C  0.54080548  0.36699724  0.17923374     0.02940
C1229       C  0.52535001  0.37075173  0.20949068    -0.13210
C1230       C  0.52063472  0.34403205  0.22968225     0.00440
C1231       C  0.53023535  0.31417444  0.21736430    -0.11730
C1232       C  0.55091617  0.31155194  0.19118315     0.02940
C1233       C  0.55546757  0.33785985  0.17129391    -0.11150
H1234       H  0.51683383  0.39403560  0.21682661     0.08530
H1235       H  0.52563216  0.29243578  0.23032280     0.06060
H1236       H  0.57004283  0.33576885  0.14983291     0.05910
O1237       O  0.95633257  0.49405525  0.00102303    -0.86670
O1238       O  0.63490078  0.49408775  0.99846347    -0.86840
O1239       O  0.54500002  0.45614698  0.44512556    -0.88510
O1240       O  0.54682319  0.45545806  0.05183952    -0.87270
O1241       O  0.54753791  0.49416005  0.09153057    -0.86860
O1242       O  0.54347310  0.49572582  0.40687061    -0.88230
O1243       O  0.59677770  0.45532223  0.99687655    -0.86700
O1244       O  0.99444472  0.45541240  0.00107942    -0.86290
Zr1245     Zr  0.54585867  0.48156122  0.99895260     2.84310
O1246       O  0.57769751  0.01343727  0.03265158    -1.08270
O1247       O  0.51412180  0.01382842  0.46645790    -1.09000
C1248       C  0.96549893  0.46465232  0.00186880     1.06430
C1249       C  0.62580932  0.46450016  0.99663100     1.06380
C1250       C  0.54373337  0.46621524  0.41558394     1.09360
C1251       C  0.54749164  0.46481476  0.08178281     1.07140
H1252       H  0.59065101  0.00085718  0.45328055     0.32700
O1253       O  0.57773645  0.01422223  0.46696410    -1.29220
H1254       H  0.50132850  0.00019445  0.04527335     0.32370
O1255       O  0.51434950  0.01376321  0.03192101    -1.30900
O1256       O  0.63562628  0.09846553  0.00237674    -0.86670
O1257       O  0.95722968  0.09848760  0.99806215    -0.88170
O1258       O  0.59794230  0.04340907  0.40842916    -0.86750
O1259       O  0.59724723  0.04871966  0.09210029    -0.86790
O1260       O  0.99404755  0.04211504  0.09167351    -0.86510
O1261       O  0.99568043  0.04918811  0.40781606    -0.86310
O1262       O  0.54693643  0.13745952  0.44850367    -0.86680
O1263       O  0.54341727  0.13659228  0.05464959    -0.86150
O1264       O  0.54809664  0.09871681  0.40873049    -0.87210
O1265       O  0.54411440  0.09717574  0.09304066    -0.86370
O1266       O  0.63555832  0.04508922  0.44820756    -0.86770
O1267       O  0.95751912  0.04750382  0.44704490    -0.86490
O1268       O  0.95649792  0.04410566  0.05192598    -0.86140
O1269       O  0.63508610  0.04724897  0.05237912    -0.86550
O1270       O  0.59752793  0.13700946  0.00410416    -0.86840
O1271       O  0.99532733  0.13741606  0.99845392    -0.88180
Zr1272     Zr  0.60923137  0.04635709  0.00027280     2.83100
Zr1273     Zr  0.98276007  0.04616088  0.99975869     2.83500
Zr1274     Zr  0.54654077  0.04682073  0.43480901     2.84090
Zr1275     Zr  0.54572731  0.04582086  0.06543717     2.83360
Zr1276     Zr  0.54610347  0.11097559  0.00119165     2.84220
O1277       O  0.51379495  0.07857875  0.03359034    -1.08750
O1278       O  0.57837158  0.07942980  0.46776624    -1.08250
C1279       C  0.62650586  0.12787281  0.00412633     1.06410
C1280       C  0.96637744  0.12807181  0.99686408     1.09020
C1281       C  0.62674695  0.04325009  0.41842066     1.06580
C1282       C  0.62618552  0.04864394  0.08218580     1.06940
C1283       C  0.96517897  0.04201929  0.08171981     1.06520
C1284       C  0.96671388  0.04948356  0.41728920     1.06070
C1285       C  0.54754664  0.12801873  0.41863181     1.06500
C1286       C  0.54341037  0.12668355  0.08424602     1.06010
H1287       H  0.50206315  0.09210041  0.45431794     0.32690
O1288       O  0.51484922  0.07870280  0.46782439    -1.29850
H1289       H  0.59041802  0.09181009  0.04711967     0.32710
O1290       O  0.57750799  0.07845492  0.03330573    -1.31230
C1291       C  0.52707539  0.41329759  0.10253945    -0.09340
C1292       C  0.54683326  0.43996279  0.10701403     0.06850
C1293       C  0.56425065  0.44287361  0.13605010    -0.03110
C1294       C  0.56137628  0.41941859  0.15993853    -0.07560
C1295       C  0.54156216  0.39289717  0.15527330     0.05970
C1296       C  0.52430833  0.38994742  0.12634559    -0.02580
Br1297     Br  0.99605463  0.35468572  0.11860638    -0.02280
H1298       H  0.51324800  0.41087318  0.08064575     0.09880
H1299       H  0.57523619  0.42143740  0.18183876     0.07900
Br1300     Br  0.59398498  0.47694211  0.14350281    -0.02710
C1301       C  0.52827648  0.20071028  0.13576675    -0.09340
C1302       C  0.55186334  0.19786381  0.15951695     0.06850
C1303       C  0.57085901  0.17028810  0.15913095    -0.03110
C1304       C  0.56668334  0.14701004  0.13510736    -0.07560
C1305       C  0.54442821  0.15080235  0.11047918     0.05970
C1306       C  0.52469617  0.17769202  0.11118568    -0.02580
Br1307     Br  0.49218099  0.18372012  0.07965393    -0.02280
H1308       H  0.51292094  0.22125275  0.13587075     0.09880
H1309       H  0.58207677  0.12647398  0.13474820     0.07900
Br1310     Br  0.60531218  0.16433887  0.18830782    -0.02710
C1311       C  0.51488268  0.44252555  0.36929823    -0.09340
C1312       C  0.54141115  0.44227681  0.38937167     0.06850
C1313       C  0.56522271  0.41976251  0.38350380    -0.03110
C1314       C  0.56121521  0.39652992  0.35924213    -0.07560
C1315       C  0.53390977  0.39578222  0.34004593     0.05970
C1316       C  0.51094551  0.41959328  0.34482103    -0.02580
Br1317     Br  0.97253455  0.42062444  0.32049409    -0.02280
H1318       H  0.49668305  0.46016100  0.37327775     0.09880
H1319       H  0.57941424  0.37887855  0.35544068     0.07900
Br1320     Br  0.60431747  0.42122989  0.40647352    -0.02710
C1321       C  0.52083990  0.18981649  0.35844535    -0.09340
C1322       C  0.54967334  0.19937105  0.34469475     0.06850
C1323       C  0.57772486  0.18503811  0.35554145    -0.03110
C1324       C  0.57650964  0.16176133  0.37964569    -0.07560
C1325       C  0.54776857  0.15265076  0.39352942     0.05970
C1326       C  0.51972064  0.16660785  0.38264110    -0.02580
Br1327     Br  0.97938730  0.15449693  0.39982369    -0.02280
H1328       H  0.99910636  0.20055656  0.35042685     0.09880
H1329       H  0.59816373  0.15107067  0.38798104     0.07900
Br1330     Br  0.61857533  0.19787161  0.34022702    -0.02710
C1331       C  0.88750481  0.04952014  0.12639104    -0.09340
C1332       C  0.89142570  0.02819731  0.15214273     0.06850
C1333       C  0.91983164  0.01097383  0.15420400    -0.03110
C1334       C  0.94384203  0.01631053  0.13145531    -0.07560
C1335       C  0.93991805  0.03812937  0.10609295     0.05970
C1336       C  0.91114342  0.05447306  0.10352631    -0.02580
Br1337     Br  0.90311078  0.08569503  0.07087380    -0.02280
H1338       H  0.86625080  0.06356530  0.12466365     0.09880
H1339       H  0.96542415  0.00278200  0.13316080     0.07900
Br1340     Br  0.92653476  0.97846439  0.18592521    -0.02710
C1341       C  0.70302370  0.03640856  0.12635233    -0.09340
C1342       C  0.70077258  0.05873550  0.15175558     0.06850
C1343       C  0.67381424  0.07812738  0.15386031    -0.03110
C1344       C  0.64926396  0.07395842  0.13155425    -0.07560
C1345       C  0.65144928  0.05114709  0.10653067     0.05970
C1346       C  0.67890587  0.03257800  0.10385940    -0.02580
Br1347     Br  0.68420787  0.99994949  0.07143355    -0.02280
H1348       H  0.72323358  0.02082143  0.12465363     0.09880
H1349       H  0.62878097  0.08914797  0.13324812     0.07900
Br1350     Br  0.67041381  0.11194742  0.18516135    -0.02710
C1351       C  0.70307140  0.05350898  0.37258992    -0.09340
C1352       C  0.70032497  0.02981510  0.34841484     0.06850
C1353       C  0.67313313  0.01023730  0.34779020    -0.03110
C1354       C  0.64900443  0.01549437  0.37035054    -0.07560
C1355       C  0.65177955  0.03956721  0.39407739     0.05970
C1356       C  0.67933045  0.05837551  0.39535114    -0.02580
Br1357     Br  0.68509846  0.09250208  0.42624168    -0.02280
H1358       H  0.72341793  0.06926726  0.37314006     0.09880
H1359       H  0.62831078  0.00019714  0.36987943     0.07900
Br1360     Br  0.66846659  0.97480279  0.31839603    -0.02710
C1361       C  0.92022132  0.07364069  0.34262684    -0.09340
C1362       C  0.89085580  0.05910942  0.34875128     0.06850
C1363       C  0.88733962  0.04088037  0.37737859    -0.03110
C1364       C  0.91220213  0.03877753  0.39919267    -0.07560
C1365       C  0.94167759  0.05256516  0.39262248     0.05970
C1366       C  0.94578570  0.06952415  0.36342544    -0.02580
Br1367     Br  0.98548814  0.08682594  0.34934219    -0.02280
H1368       H  0.92379594  0.08750994  0.32091199     0.09880
H1369       H  0.90881214  0.02485805  0.42095476     0.07900
Br1370     Br  0.85125271  0.01457569  0.38726157    -0.02710
C1371       C  0.66893771  0.38564641  0.98060662    -0.09340
C1372       C  0.70070669  0.39417181  0.98614902     0.06850
C1373       C  0.70695193  0.42664382  0.49517773    -0.03110
C1374       C  0.68240742  0.44875342  0.49691045    -0.07560
C1375       C  0.65073440  0.43952757  0.99326365     0.05970
C1376       C  0.64421019  0.40699126  0.98605047    -0.02580
Br1377     Br  0.60262298  0.38830050  0.98557449    -0.02280
H1378       H  0.66252138  0.36173301  0.97317026     0.09880
H1379       H  0.68825837  0.47330022  0.50293099     0.07900
Br1380     Br  0.74681527  0.44335224  0.50991468    -0.02710
C1381       C  0.67168508  0.20651983  0.49777866    -0.09340
C1382       C  0.69965207  0.19961551  0.01459502     0.06850
C1383       C  0.70259903  0.16921534  0.02898404    -0.03110
C1384       C  0.67872119  0.14621837  0.02486800    -0.07560
C1385       C  0.65121159  0.15295358  0.00737319     0.05970
C1386       C  0.64758715  0.18389250  0.49431155    -0.02580
Br1387     Br  0.61150693  0.19648006  0.46955405    -0.02280
H1388       H  0.66893003  0.22939058  0.48604542     0.09880
H1389       H  0.68140436  0.12306730  0.03607228     0.07900
Br1390     Br  0.73712052  0.15806133  0.05650877    -0.02710
C1391       C  0.91045289  0.14501256  0.50143026    -0.09340
C1392       C  0.94157112  0.15283748  0.99288329     0.06850
C1393       C  0.94761119  0.18374042  0.98037616    -0.03110
C1394       C  0.92267073  0.20485055  0.97531808    -0.07560
C1395       C  0.89172376  0.19765074  0.98541837     0.05970
C1396       C  0.88610662  0.16719718  0.49944348    -0.02580
Br1397     Br  0.84766024  0.15461133  0.52076545    -0.02280
H1398       H  0.90515986  0.12177547  0.51138480     0.09880
H1399       H  0.92806386  0.22760277  0.96432420     0.07900
Br1400     Br  0.98902179  0.20009673  0.97070887    -0.02710
C1401       C  0.91955751  0.38705491  0.49251084    -0.09340
C1402       C  0.89368517  0.39219580  0.01325863     0.06850
C1403       C  0.89215870  0.42125325  0.03079668    -0.03110
C1404       C  0.91550329  0.44470285  0.02632178    -0.07560
C1405       C  0.94096189  0.43959660  0.00511230     0.05970
C1406       C  0.94306261  0.41016625  0.48845529    -0.02580
Br1407     Br  0.97607710  0.40076987  0.45798932    -0.02280
H1408       H  0.92097162  0.36523730  0.47830869     0.09880
H1409       H  0.91411533  0.46682197  0.04004944     0.07900
Br1410     Br  0.86028001  0.42957404  0.06271547    -0.02710
C1411       C  0.86783103  0.36800764  0.01261426     0.02940
C1412       C  0.87536011  0.33485033  0.51211356    -0.13210
C1413       C  0.85406903  0.31310711  0.49812563     0.00440
C1414       C  0.82779420  0.32597421  0.48284554    -0.11730
C1415       C  0.81500036  0.35479745  0.99356615     0.02940
C1416       C  0.83611456  0.37723136  0.00676051    -0.11150
H1417       H  0.89778565  0.32654922  0.52104586     0.08530
H1418       H  0.81438803  0.31106291  0.46711354     0.06060
H1419       H  0.82827590  0.40145940  0.01073307     0.05910
C1420       C  0.86728138  0.22347530  0.48571059     0.02940
C1421       C  0.87616462  0.25612034  0.49124399    -0.13210
C1422       C  0.85360846  0.27754875  0.50290919     0.00440
C1423       C  0.82498766  0.26431739  0.51268765    -0.11730
C1424       C  0.81262063  0.23767352  0.49662421     0.02940
C1425       C  0.83443772  0.21632398  0.48302107    -0.11150
H1426       H  0.89996954  0.26472081  0.48787333     0.08530
H1427       H  0.80989815  0.27785277  0.52787024     0.06060
H1428       H  0.82626648  0.19430109  0.47190723     0.05910
C1429       C  0.72557555  0.22388443  0.51314554     0.02940
C1430       C  0.71837044  0.25715912  0.51480661    -0.13210
C1431       C  0.73903965  0.27930713  0.50060438     0.00440
C1432       C  0.76439737  0.26682060  0.48325054    -0.11730
C1433       C  0.77753635  0.23758290  0.49192713     0.02940
C1434       C  0.75688631  0.21475399  0.50487747    -0.11150
H1435       H  0.69652581  0.26531001  0.52549998     0.08530
H1436       H  0.77712448  0.28217287  0.46752298     0.06060
H1437       H  0.76482962  0.19040306  0.50681670     0.05910
C1438       C  0.72536391  0.36832827  0.48736843     0.02940
C1439       C  0.75822181  0.37514838  0.48427870    -0.13210
C1440       C  0.78004440  0.35485620  0.49906415     0.00440
C1441       C  0.76776996  0.32867769  0.51579410    -0.11730
C1442       C  0.73926066  0.31489582  0.50610290     0.02940
C1443       C  0.71676894  0.33578075  0.49377141    -0.11150
H1444       H  0.76657772  0.39577825  0.47115040     0.08540
H1445       H  0.78270453  0.31606364  0.53180286     0.06060
H1446       H  0.69332205  0.32643879  0.49014608     0.05910
C1447       C  0.86636048  0.05877955  0.82299833     0.02940
C1448       C  0.83366716  0.05877286  0.83081838    -0.13210
C1449       C  0.81245655  0.04452408  0.80904555     0.00440
C1450       C  0.82524062  0.03061475  0.78129585    -0.11730
C1451       C  0.85308778  0.04257257  0.76807062     0.02940
C1452       C  0.87519895  0.05500519  0.78984876    -0.11150
H1453       H  0.82532869  0.06794387  0.85383421     0.08530
H1454       H  0.81093406  0.01521083  0.76702237     0.06060
H1455       H  0.89879047  0.06005429  0.78133806     0.05910
C1456       C  0.72462126  0.02963169  0.82262489     0.02940
C1457       C  0.75685978  0.03366430  0.83116839    -0.13210
C1458       C  0.77743311  0.04822641  0.80916263     0.00440
C1459       C  0.76426967  0.05981710  0.78067135    -0.11730
C1460       C  0.73729655  0.04554199  0.76766091     0.02940
C1461       C  0.71583563  0.03216416  0.78954158    -0.11150
H1462       H  0.76520350  0.02710803  0.85494079     0.08530
H1463       H  0.77782023  0.07548411  0.76595588     0.06060
H1464       H  0.69251307  0.02572189  0.78124886     0.05910
C1465       C  0.72505477  0.05753231  0.67740428     0.02940
C1466       C  0.71601420  0.05344382  0.71027363    -0.13210
C1467       C  0.73741206  0.04006513  0.73180701     0.00440
C1468       C  0.76491071  0.02726181  0.71854059    -0.11730
C1469       C  0.77813410  0.04017375  0.69048393     0.02940
C1470       C  0.75741316  0.05464138  0.66879265    -0.11150
H1471       H  0.69253979  0.05890131  0.71870674     0.08530
H1472       H  0.77851859  0.01137528  0.73267397     0.06060
H1473       H  0.76580877  0.06226194  0.64529594     0.05910
C1474       C  0.86695280  0.02842760  0.67790254     0.02940
C1475       C  0.87552921  0.03349419  0.71082244    -0.13210
C1476       C  0.85343343  0.04668968  0.73209318     0.00440
C1477       C  0.82588324  0.05857752  0.71847939    -0.11730
C1478       C  0.81322736  0.04458387  0.69064729     0.02940
C1479       C  0.83450584  0.03005512  0.66922542    -0.11150
H1480       H  0.89907051  0.02906599  0.71945083     0.08530
H1481       H  0.81162139  0.07414779  0.73254480     0.06060
H1482       H  0.82650358  0.02174303  0.64574708     0.05910
C1483       C  0.55031443  0.22592991  0.82115350     0.02940
C1484       C  0.53587512  0.25528113  0.82928619    -0.13210
C1485       C  0.54009123  0.28158013  0.80911356     0.00440
C1486       C  0.56028845  0.27875059  0.78258769    -0.11730
C1487       C  0.56911811  0.24878389  0.77008991     0.02940
C1488       C  0.56470270  0.22216150  0.79033597    -0.11150
H1489       H  0.52175325  0.25763796  0.85102488     0.08530
H1490       H  0.56469491  0.30034434  0.76927435     0.06060
H1491       H  0.57240555  0.19875369  0.78242038     0.05910
C1492       C  0.52802884  0.36829472  0.81790212     0.02940
C1493       C  0.53063436  0.33686984  0.82971394    -0.13210
C1494       C  0.52083801  0.31109752  0.81045124     0.00440
C1495       C  0.50439103  0.31798497  0.78193049    -0.11730
C1496       C  0.51214778  0.34630131  0.76525747     0.02940
C1497       C  0.52169988  0.37263545  0.78454963    -0.11150
H1498       H  0.54148229  0.33241165  0.85292574     0.08530
H1499       H  0.49403536  0.29801605  0.76892187     0.06060
H1500       H  0.52591774  0.39576700  0.77375852     0.05910
C1501       C  0.55894915  0.22522491  0.68171968     0.02940
C1502       C  0.56434879  0.22085400  0.71527068    -0.13210
C1503       C  0.57634069  0.24628974  0.73435720     0.00440
C1504       C  0.58573275  0.27408591  0.71775006    -0.11730
C1505       C  0.56973086  0.28186126  0.68925838     0.02940
C1506       C  0.55899645  0.25672057  0.66972446    -0.11150
H1507       H  0.55784619  0.19841013  0.72638389     0.08530
H1508       H  0.59696199  0.29347944  0.73090753     0.06060
H1509       H  0.54926436  0.26202717  0.64620165     0.05910
C1510       C  0.54080940  0.36699877  0.67923744     0.02940
C1511       C  0.52534765  0.37075119  0.70949182    -0.13210
C1512       C  0.52062966  0.34403007  0.72968174     0.00440
C1513       C  0.53023400  0.31417402  0.71736481    -0.11730
C1514       C  0.55092256  0.31155416  0.69119039     0.02940
C1515       C  0.55547592  0.33786244  0.67130137    -0.11150
H1516       H  0.51682846  0.39403416  0.71682688     0.08530
H1517       H  0.52562734  0.29243445  0.73032060     0.06060
H1518       H  0.57005528  0.33577227  0.64984326     0.05910
O1519       O  0.95635519  0.49405187  0.50102377    -0.86670
O1520       O  0.63490168  0.49413126  0.49846294    -0.86840
O1521       O  0.54499555  0.45613409  0.94512475    -0.88510
O1522       O  0.54682474  0.45546466  0.55184052    -0.87270
O1523       O  0.54753391  0.49416519  0.59153326    -0.86860
O1524       O  0.54347674  0.49571128  0.90686761    -0.88230
O1525       O  0.59678952  0.45535445  0.49687522    -0.86700
O1526       O  0.99448157  0.45542340  0.50108013    -0.86290
Zr1527     Zr  0.54585848  0.48157283  0.49895543     2.84310
O1528       O  0.57771322  0.01348413  0.53264337    -1.08270
O1529       O  0.51411291  0.01381338  0.96646052    -1.09000
C1530       C  0.96553267  0.46465277  0.50187144     1.06430
C1531       C  0.62581854  0.46454246  0.49662648     1.06380
C1532       C  0.54373157  0.46620126  0.91558284     1.09360
C1533       C  0.54749125  0.46481988  0.58178445     1.07140
H1534       H  0.59063411  0.00081323  0.95327938     0.32700
O1535       O  0.57772312  0.01418031  0.96696454    -1.29220
H1536       H  0.50134300  0.00021042  0.54527159     0.32370
O1537       O  0.51435919  0.01378270  0.53191811    -1.30900
O1538       O  0.63558689  0.09856126  0.50237776    -0.86670
O1539       O  0.95719737  0.09848268  0.49806331    -0.88170
O1540       O  0.59794242  0.04338350  0.90843519    -0.86750
O1541       O  0.59725069  0.04875556  0.59209230    -0.86790
O1542       O  0.99403831  0.04212238  0.59167918    -0.86510
O1543       O  0.99569015  0.04918510  0.90781219    -0.86310
O1544       O  0.54696826  0.13744097  0.94851660    -0.86680
O1545       O  0.54338351  0.13661697  0.55464346    -0.86150
O1546       O  0.54810609  0.09870071  0.90874036    -0.87210
O1547       O  0.54410609  0.09720058  0.59303382    -0.86370
O1548       O  0.63555582  0.04503036  0.94821718    -0.86770
O1549       O  0.95752991  0.04750554  0.94704249    -0.86490
O1550       O  0.95648752  0.04410875  0.55193218    -0.86140
O1551       O  0.63509139  0.04731379  0.55237134    -0.86550
O1552       O  0.59746815  0.13708383  0.50410447    -0.86840
O1553       O  0.99528754  0.13741871  0.49845340    -0.88180
Zr1554     Zr  0.60923575  0.04641998  0.50026517     2.83100
Zr1555     Zr  0.98274644  0.04616401  0.49976320     2.83500
Zr1556     Zr  0.54654163  0.04679947  0.93481405     2.84090
Zr1557     Zr  0.54572945  0.04584862  0.56543150     2.83360
Zr1558     Zr  0.54607269  0.11100264  0.50118351     2.84220
O1559       O  0.51378090  0.07859463  0.53358654    -1.08750
O1560       O  0.57838703  0.07938760  0.96777514    -1.08250
C1561       C  0.62645036  0.12796504  0.50413285     1.06410
C1562       C  0.96633821  0.12806905  0.49686320     1.09020
C1563       C  0.62674584  0.04321023  0.91842910     1.06580
C1564       C  0.62618936  0.04869324  0.58217838     1.06940
C1565       C  0.96516985  0.04202461  0.58172582     1.06520
C1566       C  0.96672367  0.04948427  0.91728645     1.06070
C1567       C  0.54756700  0.12800274  0.91864372     1.06500
C1568       C  0.54338969  0.12670768  0.58423977     1.06010
H1569       H  0.50208202  0.09209281  0.95432845     0.32690
O1570       O  0.51486393  0.07868963  0.96783334    -1.29850
H1571       H  0.59039810  0.09185875  0.54711297     0.32710
O1572       O  0.57749413  0.07849812  0.53329837    -1.31230
C1573       C  0.52707664  0.41330074  0.60254212    -0.09340
C1574       C  0.54683510  0.43996594  0.60701512     0.06850
C1575       C  0.56425572  0.44287478  0.63604932    -0.03110
C1576       C  0.56138262  0.41941940  0.65993819    -0.07560
C1577       C  0.54156668  0.39289873  0.65527544     0.05970
C1578       C  0.52431116  0.38994984  0.62634846    -0.02580
Br1579     Br  0.99606516  0.35470825  0.61858536    -0.02280
H1580       H  0.51324750  0.41087693  0.58064955     0.09880
H1581       H  0.57524467  0.42143762  0.68183702     0.07900
Br1582     Br  0.59399321  0.47694115  0.64349776    -0.02710
C1583       C  0.52826342  0.20072544  0.63577526    -0.09340
C1584       C  0.55185367  0.19787319  0.65952109     0.06850
C1585       C  0.57084972  0.17029851  0.65912642    -0.03110
C1586       C  0.56667148  0.14702649  0.63509810    -0.07560
C1587       C  0.54441216  0.15082373  0.61047451     0.05970
C1588       C  0.52467956  0.17771258  0.61118973    -0.02580
Br1589     Br  0.49215917  0.18374623  0.57966492    -0.02280
H1590       H  0.51290867  0.22126861  0.63588618     0.09880
H1591       H  0.58206546  0.12649089  0.63473224     0.07900
Br1592     Br  0.60530600  0.16434393  0.68829816    -0.02710
C1593       C  0.51488491  0.44252331  0.86928974    -0.09340
C1594       C  0.54140636  0.44226218  0.88937245     0.06850
C1595       C  0.56520753  0.41973371  0.88351708    -0.03110
C1596       C  0.56119723  0.39650254  0.85925491    -0.07560
C1597       C  0.53389788  0.39576757  0.84004918     0.05970
C1598       C  0.51094358  0.41959029  0.84481443    -0.02580
Br1599     Br  0.97252936  0.42061546  0.82047962    -0.02280
H1600       H  0.49669290  0.46016853  0.87326139     0.09880
H1601       H  0.57938856  0.37884138  0.85546163     0.07900
Br1602     Br  0.60429125  0.42117613  0.90650842    -0.02710
C1603       C  0.52084054  0.18980393  0.85846728    -0.09340
C1604       C  0.54966946  0.19936405  0.84471008     0.06850
C1605       C  0.57772561  0.18503645  0.85555284    -0.03110
C1606       C  0.57651896  0.16175687  0.87965552    -0.07560
C1607       C  0.54778201  0.15263834  0.89354311     0.05970
C1608       C  0.51973003  0.16659351  0.88266240    -0.02580
Br1609     Br  0.97940282  0.15449676  0.89982963    -0.02280
H1610       H  0.99911705  0.20055666  0.85043154     0.09880
H1611       H  0.59817657  0.15107013  0.88798642     0.07900
Br1612     Br  0.61857151  0.19788137  0.84023541    -0.02710
C1613       C  0.88750106  0.04953447  0.62640186    -0.09340
C1614       C  0.89141935  0.02820629  0.65214939     0.06850
C1615       C  0.91982225  0.01097779  0.65420765    -0.03110
C1616       C  0.94383211  0.01631265  0.63145827    -0.07560
C1617       C  0.93991046  0.03813598  0.60609961     0.05970
C1618       C  0.91113981  0.05448703  0.60353747    -0.02580
Br1619     Br  0.90311549  0.08571948  0.57089291    -0.02280
H1620       H  0.86624955  0.06358403  0.62467820     0.09880
H1621       H  0.96541198  0.00278002  0.63316059     0.07900
Br1622     Br  0.92652159  0.97846603  0.68592720    -0.02710
C1623       C  0.70302008  0.03643266  0.62635114    -0.09340
C1624       C  0.70076780  0.05874914  0.65176376     0.06850
C1625       C  0.67381116  0.07814351  0.65387238    -0.03110
C1626       C  0.64926447  0.07398791  0.63155956    -0.07560
C1627       C  0.65145154  0.05118764  0.60652597     0.05970
C1628       C  0.67890571  0.03261538  0.60385212    -0.02580
Br1629     Br  0.68420744  0.99999856  0.57141452    -0.02280
H1630       H  0.72322820  0.02084351  0.62464897     0.09880
H1631       H  0.62878260  0.08917867  0.63325698     0.07900
Br1632     Br  0.67040767  0.11194956  0.68518862    -0.02710
C1633       C  0.70306520  0.05350314  0.87260107    -0.09340
C1634       C  0.70032747  0.02981068  0.84842352     0.06850
C1635       C  0.67314294  0.01022219  0.84779662    -0.03110
C1636       C  0.64901237  0.01546723  0.87035735    -0.07560
C1637       C  0.65177918  0.03953806  0.89408662     0.05970
C1638       C  0.67932240  0.05835740  0.89536285    -0.02580
Br1639     Br  0.68507501  0.09248227  0.92625847    -0.02280
H1640       H  0.72340580  0.06926928  0.87315290     0.09880
H1641       H  0.62832401  0.00016261  0.86988460     0.07900
Br1642     Br  0.66848911  0.97478910  0.81839876    -0.02710
C1643       C  0.92022639  0.07364982  0.84262909    -0.09340
C1644       C  0.89086000  0.05912046  0.84875484     0.06850
C1645       C  0.88734514  0.04088959  0.87738112    -0.03110
C1646       C  0.91220955  0.03878309  0.89919282    -0.07560
C1647       C  0.94168570  0.05256890  0.89262129     0.05970
C1648       C  0.94579237  0.06952979  0.86342528    -0.02580
Br1649     Br  0.98549503  0.08682979  0.84934083    -0.02280
H1650       H  0.92380033  0.08752037  0.82091499     0.09880
H1651       H  0.90882029  0.02486230  0.92095416     0.07900
Br1652     Br  0.85125706  0.01458705  0.88726524    -0.02710
C1653       C  0.66897421  0.38572198  0.48054165    -0.09340
C1654       C  0.70073715  0.39425081  0.48611168     0.06850
C1655       C  0.70693063  0.42657079  0.99519183    -0.03110
C1656       C  0.68239277  0.44868903  0.99691549    -0.07560
C1657       C  0.65075207  0.43958271  0.49324698     0.05970
C1658       C  0.64423913  0.40705158  0.48600286    -0.02580
Br1659     Br  0.60265943  0.38834430  0.48551306    -0.02280
H1660       H  0.66256942  0.36181403  0.47307488     0.09880
H1661       H  0.68825194  0.47323797  0.00291904     0.07900
Br1662     Br  0.74679770  0.44328458  0.00991309    -0.02710
C1663       C  0.67177274  0.20639370  0.99770962    -0.09340
C1664       C  0.69957544  0.19973143  0.51464166     0.06850
C1665       C  0.70252232  0.16932864  0.52902330    -0.03110
C1666       C  0.67865261  0.14632644  0.52489156    -0.07560
C1667       C  0.65114079  0.15306213  0.50740153     0.05970
C1668       C  0.64767578  0.18376776  0.99424497    -0.02580
Br1669     Br  0.61162482  0.19632586  0.96942847    -0.02280
H1670       H  0.66902603  0.22925618  0.98595765     0.09880
H1671       H  0.68134324  0.12317016  0.53608288     0.07900
Br1672     Br  0.73702859  0.15818295  0.55657052    -0.02710
C1673       C  0.91050069  0.14502372  0.00143845    -0.09340
C1674       C  0.94152440  0.15283030  0.49287914     0.06850
C1675       C  0.94755864  0.18373354  0.48037068    -0.03110
C1676       C  0.92261524  0.20484026  0.47531150    -0.07560
C1677       C  0.89166873  0.19764215  0.48541695     0.05970
C1678       C  0.88615844  0.16720980  0.99945057    -0.02580
Br1679     Br  0.84771379  0.15463523  0.02078322    -0.02280
H1680       H  0.90520542  0.12178871  0.01139646     0.09880
H1681       H  0.92800791  0.22758993  0.46431283     0.07900
Br1682     Br  0.98896627  0.20009735  0.47070459    -0.02710
C1683       C  0.91951636  0.38705771  0.99251698    -0.09340
C1684       C  0.89372532  0.39219124  0.51325158     0.06850
C1685       C  0.89220455  0.42124036  0.53080368    -0.03110
C1686       C  0.91554980  0.44468963  0.52633538    -0.07560
C1687       C  0.94100438  0.43959001  0.50511960     0.05970
C1688       C  0.94301959  0.41016928  0.98845439    -0.02580
Br1689     Br  0.97603367  0.40076455  0.95799062    -0.02280
H1690       H  0.92093345  0.36523582  0.97832198     0.09880
H1691       H  0.91416370  0.46680463  0.54007017     0.07900
Br1692     Br  0.86033013  0.42954928  0.56273007    -0.02710
C1693       C  0.86785883  0.86801750  0.51258400     0.02940
C1694       C  0.87536174  0.83485518  0.01211728    -0.13210
C1695       C  0.85407677  0.81310759  0.99812741     0.00440
C1696       C  0.82780001  0.82596863  0.98284481    -0.11730
C1697       C  0.81502289  0.85484245  0.49352670     0.02940
C1698       C  0.83614953  0.87726128  0.50672559    -0.11150
H1699       H  0.89778799  0.82655865  0.02105222     0.08530
H1700       H  0.81439670  0.81105306  0.96711411     0.06060
H1701       H  0.82832508  0.90149363  0.51070268     0.05910
C1702       C  0.86731358  0.72347714  0.98572774     0.02940
C1703       C  0.87618848  0.75612473  0.99125852    -0.13210
C1704       C  0.85362353  0.77754965  0.00291265     0.00440
C1705       C  0.82500314  0.76431329  0.01268410    -0.11730
C1706       C  0.81264611  0.73766543  0.99662033     0.02940
C1707       C  0.83447194  0.71631755  0.98302942    -0.11150
H1708       H  0.89999297  0.76472910  0.98789390     0.08530
H1709       H  0.80990592  0.77784779  0.02785884     0.06060
H1710       H  0.82630896  0.69428941  0.97191981     0.05910
C1711       C  0.72560929  0.72385330  0.01315073     0.02940
C1712       C  0.71840266  0.75712749  0.01482332    -0.13210
C1713       C  0.73906080  0.77928031  0.00061255     0.00440
C1714       C  0.76441509  0.76680081  0.98324830    -0.11730
C1715       C  0.77756218  0.73756481  0.99191852     0.02940
C1716       C  0.75691869  0.71472954  0.00486781    -0.11150
H1717       H  0.69656293  0.76527509  0.02553002     0.08530
H1718       H  0.77713542  0.78215776  0.96751920     0.06060
H1719       H  0.76486735  0.69037986  0.00679294     0.05910
C1720       C  0.72535829  0.86829007  0.98735776     0.02940
C1721       C  0.75821446  0.87512022  0.98426759    -0.13210
C1722       C  0.78004318  0.85483981  0.99906091     0.00440
C1723       C  0.76777596  0.82866174  0.01579749    -0.11730
C1724       C  0.73927079  0.81486871  0.00610841     0.02940
C1725       C  0.71677316  0.83574272  0.99376962    -0.11150
H1726       H  0.76656398  0.89575017  0.97113509     0.08540
H1727       H  0.78271333  0.81605786  0.03181250     0.06060
H1728       H  0.69332835  0.82639387  0.99014652     0.05910
C1729       C  0.86634839  0.55875683  0.32299650     0.02940
C1730       C  0.83365481  0.55874888  0.33081386    -0.13210
C1731       C  0.81244641  0.54450030  0.30903893     0.00440
C1732       C  0.82523250  0.53059126  0.28129006    -0.11730
C1733       C  0.85308157  0.54254851  0.26806834     0.02940
C1734       C  0.87519028  0.55498141  0.28984834    -0.11150
H1735       H  0.82531424  0.56792004  0.35382884     0.08530
H1736       H  0.81092650  0.51518911  0.26701373     0.06060
H1737       H  0.89878259  0.56003060  0.28133995     0.05910
C1738       C  0.72460706  0.52962477  0.32260758     0.02940
C1739       C  0.75684636  0.53364538  0.33115272    -0.13210
C1740       C  0.77742403  0.54820743  0.30915154     0.00440
C1741       C  0.76426567  0.55980663  0.28066149    -0.11730
C1742       C  0.73728958  0.54554089  0.26764720     0.02940
C1743       C  0.71582402  0.53216466  0.28952424    -0.11150
H1744       H  0.76518708  0.52708349  0.35492463     0.08530
H1745       H  0.77782153  0.57547239  0.26594946     0.06060
H1746       H  0.69250018  0.52573063  0.28122909     0.05910
C1747       C  0.72506655  0.55753259  0.17738773     0.02940
C1748       C  0.71601999  0.55345280  0.21025631    -0.13210
C1749       C  0.73740876  0.54006482  0.23179346     0.00440
C1750       C  0.76490435  0.52724943  0.21853209    -0.11730
C1751       C  0.77813599  0.54015355  0.19047560     0.02940
C1752       C  0.75742405  0.55462754  0.16878039    -0.11150
H1753       H  0.69254698  0.55892351  0.21868506     0.08530
H1754       H  0.77850474  0.51135981  0.23266976     0.06060
H1755       H  0.76582523  0.56224125  0.14528342     0.05910
C1756       C  0.86695517  0.52839522  0.17790479     0.02940
C1757       C  0.87552971  0.53346854  0.21082432    -0.13210
C1758       C  0.85343207  0.54666584  0.23209151     0.00440
C1759       C  0.82588379  0.55855315  0.21847420    -0.11730
C1760       C  0.81322949  0.54455511  0.19064406     0.02940
C1761       C  0.83450790  0.53001936  0.16922725    -0.11150
H1762       H  0.89907067  0.52904581  0.21945578     0.08530
H1763       H  0.81162128  0.57412566  0.23253647     0.06060
H1764       H  0.82650566  0.52170188  0.14575079     0.05910
C1765       C  0.55031431  0.72593286  0.32114603     0.02940
C1766       C  0.53588479  0.75528648  0.32928418    -0.13210
C1767       C  0.54010756  0.78158630  0.30911594     0.00440
C1768       C  0.56030011  0.77875365  0.28258591    -0.11730
C1769       C  0.56912192  0.74878460  0.27008521     0.02940
C1770       C  0.56470137  0.72216259  0.29032924    -0.11150
H1771       H  0.52176389  0.75764404  0.35102354     0.08530
H1772       H  0.56470810  0.80034728  0.26927283     0.06060
H1773       H  0.57239861  0.69875318  0.28241254     0.05910
C1774       C  0.52803684  0.86830152  0.31790616     0.02940
C1775       C  0.53065281  0.83687732  0.32971734    -0.13210
C1776       C  0.52085493  0.81110303  0.31045763     0.00440
C1777       C  0.50439861  0.81798623  0.28194248    -0.11730
C1778       C  0.51214944  0.84630108  0.26526603     0.02940
C1779       C  0.52170007  0.87263900  0.28455459    -0.11150
H1780       H  0.54150775  0.83242163  0.35292616     0.08530
H1781       H  0.49404207  0.79801535  0.26893761     0.06060
H1782       H  0.52591120  0.89577071  0.27376132     0.05910
C1783       C  0.55894946  0.72521870  0.18171595     0.02940
C1784       C  0.56435037  0.72084944  0.21526728    -0.13210
C1785       C  0.57634209  0.74628706  0.23435252     0.00440
C1786       C  0.58573323  0.77408156  0.21774378    -0.11730
C1787       C  0.56972519  0.78185603  0.18925652     0.02940
C1788       C  0.55899120  0.75671517  0.16972232    -0.11150
H1789       H  0.55784879  0.69840586  0.22638152     0.08530
H1790       H  0.59696454  0.79347538  0.23089889     0.06060
H1791       H  0.54925692  0.76202227  0.14620067     0.05910
C1792       C  0.54080190  0.86699021  0.17924436     0.02940
C1793       C  0.52534333  0.87074442  0.20949916    -0.13210
C1794       C  0.52062842  0.84402500  0.22969041     0.00440
C1795       C  0.53023206  0.81416783  0.21737361    -0.11730
C1796       C  0.55091548  0.81154699  0.19119429     0.02940
C1797       C  0.55546707  0.83785472  0.17130588    -0.11150
H1798       H  0.51682404  0.89402762  0.21683338     0.08530
H1799       H  0.52562774  0.79242878  0.23033102     0.06060
H1800       H  0.57004338  0.83576450  0.14984551     0.05910
O1801       O  0.95635780  0.99405436  0.00102103    -0.86670
O1802       O  0.63487370  0.99405995  0.99847082    -0.86840
O1803       O  0.54499867  0.95614626  0.44512795    -0.88510
O1804       O  0.54679922  0.95543891  0.05184419    -0.87270
O1805       O  0.54751791  0.99414137  0.09153548    -0.86860
O1806       O  0.54347562  0.99572408  0.40687172    -0.88230
O1807       O  0.59675460  0.95529095  0.99687127    -0.86700
O1808       O  0.99447833  0.95542033  0.00107904    -0.86290
Zr1809     Zr  0.54583507  0.98154146  0.99895747     2.84310
O1810       O  0.57772042  0.51346642  0.03263744    -1.08270
O1811       O  0.51411977  0.51382694  0.46645916    -1.09000
C1812       C  0.96553091  0.96465385  0.00186849     1.06430
C1813       C  0.62578613  0.96447379  0.99662653     1.06380
C1814       C  0.54373332  0.96621365  0.41558600     1.09360
C1815       C  0.54747067  0.96479637  0.08178716     1.07140
H1816       H  0.59064888  0.50085864  0.45327668     0.32700
O1817       O  0.57773466  0.51422280  0.46696147    -1.29220
H1818       H  0.50135048  0.50020374  0.04526944     0.32370
O1819       O  0.51436741  0.51377459  0.03191533    -1.30900
O1820       O  0.63560835  0.59853203  0.00236941    -0.86670
O1821       O  0.95722268  0.59848640  0.99807549    -0.88170
O1822       O  0.59793452  0.54341341  0.40842566    -0.86750
O1823       O  0.59726576  0.54874549  0.09208211    -0.86790
O1824       O  0.99403811  0.54210362  0.09167714    -0.86510
O1825       O  0.99567394  0.54918473  0.40781139    -0.86310
O1826       O  0.54693196  0.63745916  0.44850751    -0.86680
O1827       O  0.54340809  0.63660460  0.05463538    -0.86150
O1828       O  0.54808764  0.59871721  0.40873337    -0.87210
O1829       O  0.54412136  0.59719057  0.09302800    -0.86370
O1830       O  0.63555307  0.54509233  0.44820144    -0.86770
O1831       O  0.95751515  0.54749969  0.44704280    -0.86490
O1832       O  0.95648864  0.54409569  0.05193032    -0.86140
O1833       O  0.63510585  0.54728879  0.05236025    -0.86550
O1834       O  0.59749456  0.63705776  0.00410594    -0.86840
O1835       O  0.99532500  0.63741096  0.99845536    -0.88180
Zr1836     Zr  0.60924986  0.54639157  0.00025537     2.83100
Zr1837     Zr  0.98274804  0.54615610  0.99976260     2.83500
Zr1838     Zr  0.54653564  0.54682113  0.43480977     2.84090
Zr1839     Zr  0.54574241  0.54583756  0.06542655     2.83360
Zr1840     Zr  0.54609832  0.61098570  0.00117713     2.84220
O1841       O  0.51379904  0.57858701  0.03358170    -1.08750
O1842       O  0.57836826  0.57943042  0.46776510    -1.08250
C1843       C  0.62647545  0.62793728  0.00413142     1.06410
C1844       C  0.96637208  0.62807002  0.99687456     1.09020
C1845       C  0.62673969  0.54325443  0.41841515     1.06580
C1846       C  0.62620393  0.54867745  0.08216687     1.06940
C1847       C  0.96516949  0.54200759  0.08172381     1.06520
C1848       C  0.96670795  0.54947900  0.41728659     1.06070
C1849       C  0.54753900  0.62801863  0.41863570     1.06500
C1850       C  0.54340884  0.62669740  0.08423246     1.06010
H1851       H  0.50205865  0.59210018  0.45432163     0.32690
O1852       O  0.51484580  0.57870258  0.46782702    -1.29850
H1853       H  0.59041999  0.59183582  0.04710395     0.32710
O1854       O  0.57751435  0.57847625  0.03329008    -1.31230
C1855       C  0.52705703  0.91328186  0.10255039    -0.09340
C1856       C  0.54681728  0.93994603  0.10701854     0.06850
C1857       C  0.56424282  0.94285817  0.13604919    -0.03110
C1858       C  0.56137223  0.91940631  0.15994043    -0.07560
C1859       C  0.54155457  0.89288688  0.15528235     0.05970
C1860       C  0.52429454  0.88993421  0.12635906    -0.02580
Br1861     Br  0.99603958  0.85471170  0.11859919    -0.02280
H1862       H  0.51322478  0.91085633  0.08066007     0.09880
H1863       H  0.57523770  0.92142576  0.18183691     0.07900
Br1864     Br  0.59398336  0.97692361  0.14349007    -0.02710
C1865       C  0.52827422  0.70071794  0.13576338    -0.09340
C1866       C  0.55185835  0.69786556  0.15951597     0.06850
C1867       C  0.57085291  0.67028928  0.15912641    -0.03110
C1868       C  0.56667970  0.64701731  0.13509670    -0.07560
C1869       C  0.54442737  0.65081528  0.11046655     0.05970
C1870       C  0.52469585  0.67770518  0.11117663    -0.02580
Br1871     Br  0.49218327  0.68374039  0.07964353    -0.02280
H1872       H  0.51291935  0.72126094  0.13587009     0.09880
H1873       H  0.58207218  0.62648049  0.13473568     0.07900
Br1874     Br  0.60530054  0.66432979  0.18830810    -0.02710
C1875       C  0.51488174  0.94252561  0.36929975    -0.09340
C1876       C  0.54140913  0.94227420  0.38937465     0.06850
C1877       C  0.56521719  0.91975530  0.38351001    -0.03110
C1878       C  0.56120735  0.89652162  0.35924981    -0.07560
C1879       C  0.53390283  0.89577672  0.34005212     0.05970
C1880       C  0.51094210  0.91959197  0.34482418    -0.02580
Br1881     Br  0.97253418  0.92058378  0.32052906    -0.02280
H1882       H  0.49668466  0.96016424  0.37327699     0.09880
H1883       H  0.57940400  0.87886729  0.35545059     0.07900
Br1884     Br  0.60431062  0.92121735  0.40648227    -0.02710
C1885       C  0.52082786  0.68980936  0.35844643    -0.09340
C1886       C  0.54966122  0.69936668  0.34469806     0.06850
C1887       C  0.57771411  0.68503932  0.35554794    -0.03110
C1888       C  0.57650033  0.66176414  0.37965322    -0.07560
C1889       C  0.54775928  0.65265024  0.39353432     0.05970
C1890       C  0.51970999  0.66660227  0.38264329    -0.02580
Br1891     Br  0.97940122  0.65451461  0.39980363    -0.02280
H1892       H  0.99913657  0.70057064  0.35041090     0.09880
H1893       H  0.59815525  0.65107705  0.38799105     0.07900
Br1894     Br  0.61856383  0.69787859  0.34023614    -0.02710
C1895       C  0.88748807  0.54947929  0.12638751    -0.09340
C1896       C  0.89142198  0.52817272  0.15215083     0.06850
C1897       C  0.91983799  0.51096719  0.15422039    -0.03110
C1898       C  0.94384558  0.51630876  0.13147005    -0.07560
C1899       C  0.93990890  0.53811288  0.10609673     0.05970
C1900       C  0.91112288  0.55443496  0.10351992    -0.02580
Br1901     Br  0.90306405  0.58562995  0.07084795    -0.02280
H1902       H  0.86622580  0.56351053  0.12465205     0.09880
H1903       H  0.96543586  0.50279455  0.13318296     0.07900
Br1904     Br  0.92656028  0.47847370  0.18595408    -0.02710
C1905       C  0.70302833  0.53641408  0.12634538    -0.09340
C1906       C  0.70078388  0.55874686  0.15174419     0.06850
C1907       C  0.67383621  0.57815450  0.15384012    -0.03110
C1908       C  0.64928803  0.57399480  0.13153022    -0.07560
C1909       C  0.65146616  0.55117703  0.10651213     0.05970
C1910       C  0.67891297  0.53259287  0.10384849    -0.02580
Br1911     Br  0.68420172  0.49995667  0.07142777    -0.02280
H1912       H  0.72323033  0.52081581  0.12465334     0.09880
H1913       H  0.62881239  0.58919523  0.13321726     0.07900
Br1914     Br  0.67044902  0.61198204  0.18513457    -0.02710
C1915       C  0.70306392  0.55350678  0.37258385    -0.09340
C1916       C  0.70031285  0.52981649  0.34840572     0.06850
C1917       C  0.67311708  0.51024442  0.34777810    -0.03110
C1918       C  0.64898993  0.51550307  0.37033957    -0.07560
C1919       C  0.65177028  0.53957172  0.39407012     0.05970
C1920       C  0.67932447  0.55837480  0.39534599    -0.02580
Br1921     Br  0.68510002  0.59249620  0.42624098    -0.02280
H1922       H  0.72341330  0.56926119  0.37313604     0.09880
H1923       H  0.62829343  0.50020987  0.36986661     0.07900
Br1924     Br  0.66844228  0.47481526  0.31837857    -0.02710
C1925       C  0.92020929  0.57363722  0.34262971    -0.09340
C1926       C  0.89084552  0.55910247  0.34875433     0.06850
C1927       C  0.88733210  0.54087086  0.37738013    -0.03110
C1928       C  0.91219600  0.53876837  0.39919272    -0.07560
C1929       C  0.94166998  0.55255919  0.39262181     0.05970
C1930       C  0.94577508  0.56952097  0.36342622    -0.02580
Br1931     Br  0.98547542  0.58682681  0.34934212    -0.02280
H1932       H  0.92378154  0.58750865  0.32091588     0.09880
H1933       H  0.90880844  0.52484698  0.42095394     0.07900
Br1934     Br  0.85124719  0.51456300  0.38726188    -0.02710
C1935       C  0.66896247  0.88566570  0.98052264    -0.09340
C1936       C  0.70072282  0.89420344  0.98609908     0.06850
C1937       C  0.70694960  0.92664161  0.49518346    -0.03110
C1938       C  0.68240527  0.94875127  0.49691695    -0.07560
C1939       C  0.65072273  0.93951719  0.99324276     0.05970
C1940       C  0.64421957  0.90698776  0.98598356    -0.02580
Br1941     Br  0.60264253  0.88827690  0.98546737    -0.02280
H1942       H  0.66256715  0.86175692  0.97304906     0.09880
H1943       H  0.68825666  0.97329818  0.50293633     0.07900
Br1944     Br  0.74681368  0.94334969  0.50991873    -0.02710
C1945       C  0.67168360  0.70652132  0.49778672    -0.09340
C1946       C  0.69960959  0.69969776  0.01465204     0.06850
C1947       C  0.70257254  0.66927540  0.02898942    -0.03110
C1948       C  0.67870070  0.64627651  0.02485134    -0.07560
C1949       C  0.65116732  0.65303418  0.00740602     0.05970
C1950       C  0.64758531  0.68389455  0.49431792    -0.02580
Br1951     Br  0.61150435  0.69648525  0.46956331    -0.02280
H1952       H  0.66892844  0.72939317  0.48605571     0.09880
H1953       H  0.68140657  0.62310496  0.03600640     0.07900
Br1954     Br  0.73709982  0.65809423  0.05649380    -0.02710
C1955       C  0.91045497  0.64501483  0.50144076    -0.09340
C1956       C  0.94156190  0.65283706  0.99290151     0.06850
C1957       C  0.94759577  0.68373980  0.98039200    -0.03110
C1958       C  0.92265212  0.70484809  0.97533707    -0.07560
C1959       C  0.89170599  0.69764933  0.98544400     0.05970
C1960       C  0.88610881  0.66719981  0.49945623    -0.02580
Br1961     Br  0.84766684  0.65461992  0.52079012    -0.02280
H1962       H  0.90516395  0.62177967  0.51140044     0.09880
H1963       H  0.92804337  0.72759783  0.96433768     0.07900
Br1964     Br  0.98900305  0.70009815  0.97071665    -0.02710
C1965       C  0.91955546  0.88705705  0.49250670    -0.09340
C1966       C  0.89371880  0.89219752  0.01324822     0.06850
C1967       C  0.89219570  0.92124986  0.03079459    -0.03110
C1968       C  0.91554201  0.94469795  0.02632551    -0.07560
C1969       C  0.94099957  0.93959412  0.00511454     0.05970
C1970       C  0.94306055  0.91016854  0.48845231    -0.02580
Br1971     Br  0.97607538  0.90077382  0.45798617    -0.02280
H1972       H  0.92096964  0.86523999  0.47830369     0.09880
H1973       H  0.91415476  0.96681502  0.04005670     0.07900
Br1974     Br  0.86031750  0.92956511  0.06271513    -0.02710
C1975       C  0.86785633  0.86801989  0.01258837     0.02940
C1976       C  0.87535924  0.83485152  0.51210965    -0.13210
C1977       C  0.85406829  0.81310774  0.49812254     0.00440
C1978       C  0.82779265  0.82597410  0.48284300    -0.11730
C1979       C  0.81502384  0.85483468  0.99352644     0.02940
C1980       C  0.83614566  0.87725795  0.00672677    -0.11150
H1981       H  0.89778500  0.82655092  0.52104186     0.08530
H1982       H  0.81438646  0.81106242  0.46711126     0.06060
H1983       H  0.82831682  0.90148910  0.01070163     0.05910
C1984       C  0.86728079  0.72347458  0.48571582     0.02940
C1985       C  0.87616392  0.75612037  0.49124445    -0.13210
C1986       C  0.85360808  0.77754974  0.50290844     0.00440
C1987       C  0.82498816  0.76431907  0.51269022    -0.11730
C1988       C  0.81262044  0.73767316  0.49663084     0.02940
C1989       C  0.83443710  0.71632199  0.48302964    -0.11150
H1990       H  0.89996863  0.76472058  0.48787135     0.08530
H1991       H  0.80989959  0.77785574  0.52787244     0.06060
H1992       H  0.82626574  0.69429692  0.47192027     0.05910
C1993       C  0.72557496  0.72388381  0.51315369     0.02940
C1994       C  0.71837019  0.75715866  0.51481509    -0.13210
C1995       C  0.73903942  0.77930647  0.50061256     0.00440
C1996       C  0.76439663  0.76681958  0.48325841    -0.11730
C1997       C  0.77753587  0.73758221  0.49193538     0.02940
C1998       C  0.75688586  0.71475328  0.50488579    -0.11150
H1999       H  0.69652564  0.76530975  0.52550844     0.08530
H2000       H  0.77712365  0.78217168  0.46753077     0.06060
H2001       H  0.76482918  0.69040236  0.50682461     0.05910
C2002       C  0.72536137  0.86832649  0.48737310     0.02940
C2003       C  0.75821890  0.87514684  0.48427967    -0.13210
C2004       C  0.78004307  0.85485566  0.49906410     0.00440
C2005       C  0.76777031  0.82867832  0.51579707    -0.11730
C2006       C  0.73926030  0.81489542  0.50610937     0.02940
C2007       C  0.71676725  0.83577933  0.49377873    -0.11150
H2008       H  0.76657326  0.89577656  0.47115007     0.08540
H2009       H  0.78270608  0.81606607  0.53180606     0.06060
H2010       H  0.69332002  0.82643709  0.49015633     0.05910
C2011       C  0.86635362  0.55875705  0.82299398     0.02940
C2012       C  0.83365980  0.55874892  0.83080994    -0.13210
C2013       C  0.81245251  0.54449925  0.80903471     0.00440
C2014       C  0.82523942  0.53059006  0.78128650    -0.11730
C2015       C  0.85308793  0.54254862  0.76806500     0.02940
C2016       C  0.87519633  0.55498182  0.78984576    -0.11150
H2017       H  0.82531815  0.56792068  0.85382426     0.08530
H2018       H  0.81093402  0.51518720  0.76701015     0.06060
H2019       H  0.89878867  0.56003179  0.78133796     0.05910
C2020       C  0.72461535  0.52961574  0.82260104     0.02940
C2021       C  0.75685391  0.53363919  0.83114695    -0.13210
C2022       C  0.77743021  0.54820446  0.80914692     0.00440
C2023       C  0.76427117  0.55980329  0.78065697    -0.11730
C2024       C  0.73729644  0.54553527  0.76764199     0.02940
C2025       C  0.71583219  0.53215602  0.78951807    -0.11150
H2026       H  0.76519485  0.52707733  0.85491879     0.08530
H2027       H  0.77782530  0.57547160  0.76594606     0.06060
H2028       H  0.69250894  0.52572007  0.78122256     0.05910
C2029       C  0.72506937  0.55752693  0.67738355     0.02940
C2030       C  0.71602494  0.55344618  0.71025246    -0.13210
C2031       C  0.73741557  0.54005993  0.73178847     0.00440
C2032       C  0.76491145  0.52724640  0.71852638    -0.11730
C2033       C  0.77814140  0.54015128  0.69046957     0.02940
C2034       C  0.75742689  0.55462259  0.66877416    -0.11150
H2035       H  0.69255213  0.55891567  0.71868267     0.08530
H2036       H  0.77851383  0.51135858  0.73266414     0.06060
H2037       H  0.76582647  0.56223682  0.64527681     0.05910
C2038       C  0.86696237  0.52839907  0.67790055     0.02940
C2039       C  0.87553608  0.53347106  0.71082046    -0.13210
C2040       C  0.85343756  0.54666619  0.73208791     0.00440
C2041       C  0.82588836  0.55855205  0.71847060    -0.11730
C2042       C  0.81323518  0.54455550  0.69063882     0.02940
C2043       C  0.83451521  0.53002221  0.66922192    -0.11150
H2044       H  0.89907721  0.52904906  0.71945195     0.08530
H2045       H  0.81162474  0.57412283  0.73253339     0.06060
H2046       H  0.82651427  0.52170584  0.64574460     0.05910
C2047       C  0.55035354  0.72593136  0.82113838     0.02940
C2048       C  0.53592093  0.75528375  0.82927715    -0.13210
C2049       C  0.54014050  0.78158514  0.80910953     0.00440
C2050       C  0.56033380  0.77875700  0.78258013    -0.11730
C2051       C  0.56915843  0.74879024  0.77007765     0.02940
C2052       C  0.56474144  0.72216576  0.79032075    -0.11150
H2053       H  0.52179864  0.75763899  0.85101577     0.08530
H2054       H  0.56473700  0.80035156  0.76926674     0.06060
H2055       H  0.57243923  0.69875751  0.78240118     0.05910
C2056       C  0.52805826  0.86829789  0.81789474     0.02940
C2057       C  0.53068017  0.83687513  0.82970698    -0.13210
C2058       C  0.52088361  0.81109897  0.81044985     0.00440
C2059       C  0.50442493  0.81797890  0.78193474    -0.11730
C2060       C  0.51216753  0.84629631  0.76525752     0.02940
C2061       C  0.52171623  0.87263509  0.78454475    -0.11150
H2062       H  0.54153778  0.83242245  0.85291515     0.08530
H2063       H  0.49407066  0.79800599  0.76893115     0.06060
H2064       H  0.52592026  0.89576823  0.77375178     0.05910
C2065       C  0.55896975  0.72522793  0.68171083     0.02940
C2066       C  0.56437731  0.72085955  0.71526050    -0.13210
C2067       C  0.57637162  0.74629704  0.73434294     0.00440
C2068       C  0.58575652  0.77409364  0.71773237    -0.11730
C2069       C  0.56974639  0.78186592  0.68924469     0.02940
C2070       C  0.55901136  0.75672305  0.66971404    -0.11150
H2071       H  0.55787787  0.69841608  0.72637624     0.08530
H2072       H  0.59698702  0.79348902  0.73088577     0.06060
H2073       H  0.54927361  0.76202780  0.64619331     0.05910
C2074       C  0.54080336  0.86699657  0.67923105     0.02940
C2075       C  0.52534753  0.87074595  0.70948853    -0.13210
C2076       C  0.52064096  0.84402468  0.72968026     0.00440
C2077       C  0.53025071  0.81417060  0.71736291    -0.11730
C2078       C  0.55093203  0.81155460  0.69118202     0.02940
C2079       C  0.55547355  0.83786325  0.67129085    -0.11150
H2080       H  0.51682541  0.89402728  0.71682533     0.08530
H2081       H  0.52565406  0.79243083  0.73032187     0.06060
H2082       H  0.57004834  0.83577627  0.64982915     0.05910
O2083       O  0.95635357  0.99405298  0.50102584    -0.86670
O2084       O  0.63490045  0.99412951  0.49847037    -0.86840
O2085       O  0.54497679  0.95612434  0.94512474    -0.88510
O2086       O  0.54681700  0.95546689  0.55184207    -0.87270
O2087       O  0.54752477  0.99416838  0.59153387    -0.86860
O2088       O  0.54347119  0.99570738  0.90687231    -0.88230
O2089       O  0.59678736  0.95535369  0.49688014    -0.86700
O2090       O  0.99447958  0.95542407  0.50108203    -0.86290
Zr2091     Zr  0.54585714  0.98157386  0.49895675     2.84310
O2092       O  0.57771492  0.51348364  0.53264086    -1.08270
O2093       O  0.51412609  0.51381884  0.96645418    -1.09000
C2094       C  0.96553081  0.96465381  0.50187227     1.06430
C2095       C  0.62581662  0.96454094  0.49663341     1.06380
C2096       C  0.54372153  0.96619640  0.91558408     1.09360
C2097       C  0.54748102  0.96482291  0.58178569     1.07140
H2098       H  0.59065272  0.50083514  0.95327141     0.32700
O2099       O  0.57774105  0.51420246  0.96695561    -1.29220
H2100       H  0.50134647  0.50020723  0.54527214     0.32370
O2101       O  0.51436130  0.51378066  0.53191851    -1.30900
O2102       O  0.63558543  0.59856212  0.50237596    -0.86670
O2103       O  0.95719787  0.59848233  0.49806251    -0.88170
O2104       O  0.59794468  0.54339644  0.90841968    -0.86750
O2105       O  0.59725609  0.54875583  0.59208824    -0.86790
O2106       O  0.99404443  0.54212093  0.59167302    -0.86510
O2107       O  0.99567336  0.54917577  0.90781621    -0.86310
O2108       O  0.54696175  0.63744479  0.94849729    -0.86680
O2109       O  0.54338489  0.63661430  0.55464572    -0.86150
O2110       O  0.54810405  0.59870292  0.90872301    -0.87210
O2111       O  0.54410905  0.59719740  0.59303549    -0.86370
O2112       O  0.63556498  0.54506507  0.94819465    -0.86770
O2113       O  0.95751470  0.54750433  0.94704823    -0.86490
O2114       O  0.95649254  0.54410072  0.55192735    -0.86140
O2115       O  0.63509449  0.54731155  0.55236455    -0.86550
O2116       O  0.59746617  0.63708398  0.50410598    -0.86840
O2117       O  0.99528807  0.63741845  0.49844646    -0.88180
Zr2118     Zr  0.60923491  0.54642057  0.50026118     2.83100
Zr2119     Zr  0.98274769  0.54616345  0.49975779     2.83500
Zr2120     Zr  0.54654655  0.54680720  0.93480326     2.84090
Zr2121     Zr  0.54573188  0.54584599  0.56543218     2.83360
Zr2122     Zr  0.54607101  0.61100129  0.50118580     2.84220
O2123       O  0.51378094  0.57859210  0.53358948    -1.08750
O2124       O  0.57838879  0.57940723  0.96775808    -1.08250
C2125       C  0.62644859  0.62796567  0.50413338     1.06410
C2126       C  0.96633859  0.62806874  0.49686089     1.09020
C2127       C  0.62674989  0.54323342  0.91840861     1.06580
C2128       C  0.62619408  0.54869240  0.58217195     1.06940
C2129       C  0.96517550  0.54201784  0.58172064     1.06520
C2130       C  0.96670761  0.54947944  0.91729175     1.06070
C2131       C  0.54756309  0.62800498  0.91862478     1.06500
C2132       C  0.54339256  0.62670458  0.58424173     1.06010
H2133       H  0.50207906  0.59209410  0.95431507     0.32690
O2134       O  0.51486379  0.57869422  0.96782052    -1.29850
H2135       H  0.59039896  0.59185711  0.54711189     0.32710
O2136       O  0.57749447  0.57849653  0.53329777    -1.31230
C2137       C  0.52706110  0.91330607  0.60254323    -0.09340
C2138       C  0.54682169  0.93996968  0.60701646     0.06850
C2139       C  0.56424343  0.94287673  0.63604997    -0.03110
C2140       C  0.56137187  0.91941946  0.65993669    -0.07560
C2141       C  0.54155576  0.89289926  0.65527276     0.05970
C2142       C  0.52429658  0.88995358  0.62634801    -0.02580
Br2143     Br  0.99604341  0.85471268  0.61860255    -0.02280
H2144       H  0.51323046  0.91088435  0.58065145     0.09880
H2145       H  0.57523574  0.92143550  0.68183450     0.07900
Br2146     Br  0.59398073  0.97694284  0.64350026    -0.02710
C2147       C  0.52827620  0.70072586  0.63577369    -0.09340
C2148       C  0.55186941  0.69787408  0.65951649     0.06850
C2149       C  0.57086209  0.67029670  0.65912310    -0.03110
C2150       C  0.56667863  0.64702285  0.63509767    -0.07560
C2151       C  0.54441762  0.65082060  0.61047594     0.05970
C2152       C  0.52468759  0.67771128  0.61119081    -0.02580
Br2153     Br  0.49216491  0.68374574  0.57966862    -0.02280
H2154       H  0.51292278  0.72127004  0.63588454     0.09880
H2155       H  0.58207032  0.62648544  0.63473207     0.07900
Br2156     Br  0.60532032  0.66433866  0.68829197    -0.02710
C2157       C  0.51487245  0.94250198  0.86930251    -0.09340
C2158       C  0.54140462  0.94226175  0.88937025     0.06850
C2159       C  0.56522682  0.91976139  0.88349415    -0.03110
C2160       C  0.56122571  0.89653060  0.85923015    -0.07560
C2161       C  0.53391641  0.89577313  0.84004021     0.05970
C2162       C  0.51094193  0.91957238  0.84482248    -0.02580
Br2163     Br  0.97253761  0.92058209  0.82052342    -0.02280
H2164       H  0.49666558  0.96012839  0.87328850     0.09880
H2165       H  0.57943171  0.87888782  0.85542271     0.07900
Br2166     Br  0.60432489  0.92124572  0.90645794    -0.02710
C2167       C  0.52086243  0.68980961  0.85844025    -0.09340
C2168       C  0.54969655  0.69936044  0.84468794     0.06850
C2169       C  0.57774607  0.68502148  0.85553225    -0.03110
C2170       C  0.57652835  0.66174420  0.87963632    -0.07560
C2171       C  0.54778685  0.65263805  0.89352231     0.05970
C2172       C  0.51974065  0.66660025  0.88263557    -0.02580
Br2173     Br  0.97942076  0.65450070  0.89983260    -0.02280
H2174       H  0.99914444  0.70055863  0.85043641     0.09880
H2175       H  0.59818117  0.65104945  0.88796969     0.07900
Br2176     Br  0.61859798  0.69784685  0.84021523    -0.02710
C2177       C  0.88749701  0.54948976  0.62638715    -0.09340
C2178       C  0.89142994  0.52817954  0.65214754     0.06850
C2179       C  0.91984561  0.51097314  0.65421569    -0.03110
C2180       C  0.94385315  0.51631584  0.63146559    -0.07560
C2181       C  0.93991667  0.53812247  0.60609461     0.05970
C2182       C  0.91113209  0.55444714  0.60352035    -0.02580
Br2183     Br  0.90307710  0.58564815  0.57085301    -0.02280
H2184       H  0.86623540  0.56352227  0.62465354     0.09880
H2185       H  0.96544301  0.50280070  0.63317664     0.07900
Br2186     Br  0.92656765  0.47847754  0.68594724    -0.02710
C2187       C  0.70302152  0.53641429  0.62634269    -0.09340
C2188       C  0.70078364  0.55874608  0.65174276     0.06850
C2189       C  0.67383811  0.57815673  0.65384369    -0.03110
C2190       C  0.64928651  0.57400225  0.63153638    -0.07560
C2191       C  0.65145841  0.55118597  0.60651640     0.05970
C2192       C  0.67890210  0.53259734  0.60384934    -0.02580
Br2193     Br  0.68417997  0.49995941  0.57142940    -0.02280
H2194       H  0.72322116  0.52081319  0.62464735     0.09880
H2195       H  0.62881316  0.58920548  0.63322700     0.07900
Br2196     Br  0.67045813  0.61198116  0.68514241    -0.02710
C2197       C  0.70306904  0.55349822  0.87257467    -0.09340
C2198       C  0.70032117  0.52980587  0.84839829     0.06850
C2199       C  0.67312810  0.51023007  0.84777104    -0.03110
C2200       C  0.64900091  0.51548552  0.87033280    -0.07560
C2201       C  0.65177886  0.53955492  0.89406252     0.05970
C2202       C  0.67932930  0.55836344  0.89533673    -0.02580
Br2203     Br  0.68509837  0.59248798  0.92622950    -0.02280
H2204       H  0.72341595  0.56925597  0.87312559     0.09880
H2205       H  0.62830653  0.50018930  0.86986091     0.07900
Br2206     Br  0.66845705  0.47480064  0.81837134    -0.02710
C2207       C  0.92021408  0.57363717  0.84263050    -0.09340
C2208       C  0.89084943  0.55910352  0.84875363     0.06850
C2209       C  0.88733325  0.54087488  0.87738124    -0.03110
C2210       C  0.91219521  0.53877407  0.89919646    -0.07560
C2211       C  0.94167020  0.55256300  0.89262666     0.05970
C2212       C  0.94577799  0.56952239  0.86343004    -0.02580
Br2213     Br  0.98547988  0.58682686  0.84934912    -0.02280
H2214       H  0.92378856  0.58750659  0.82091574     0.09880
H2215       H  0.90880572  0.52485435  0.92095848     0.07900
Br2216     Br  0.85124772  0.51456758  0.88726234    -0.02710
C2217       C  0.66897112  0.88571957  0.48055002    -0.09340
C2218       C  0.70073434  0.89424865  0.48611788     0.06850
C2219       C  0.70692716  0.92659567  0.99517259    -0.03110
C2220       C  0.68237561  0.94869528  0.99691363    -0.07560
C2221       C  0.65074973  0.93958064  0.49325495     0.05970
C2222       C  0.64423634  0.90704930  0.48601223    -0.02580
Br2223     Br  0.60265664  0.88834198  0.48552615    -0.02280
H2224       H  0.66256606  0.86181137  0.47308423     0.09880
H2225       H  0.68822025  0.97324135  0.00294359     0.07900
Br2226     Br  0.74678710  0.94331699  0.00990485    -0.02710
C2227       C  0.67169649  0.70650850  0.99783785    -0.09340
C2228       C  0.69957431  0.69973109  0.51464846     0.06850
C2229       C  0.70252092  0.66932694  0.52902730    -0.03110
C2230       C  0.67865104  0.64632526  0.52489343    -0.07560
C2231       C  0.65113902  0.65306271  0.50740435     0.05970
C2232       C  0.64759346  0.68388692  0.99437275    -0.02580
Br2233     Br  0.61147332  0.69652656  0.96970326    -0.02280
H2234       H  0.66892376  0.72939525  0.98614128     0.09880
H2235       H  0.68134166  0.62316790  0.53608249     0.07900
Br2236     Br  0.73702684  0.65817847  0.55657383    -0.02710
C2237       C  0.91049210  0.64502302  0.00146266    -0.09340
C2238       C  0.94152462  0.65283036  0.49288073     0.06850
C2239       C  0.94755716  0.68373221  0.48036802    -0.03110
C2240       C  0.92261319  0.70483869  0.47531095    -0.07560
C2241       C  0.89166850  0.69764209  0.48542308     0.05970
C2242       C  0.88614616  0.66720751  0.99947724    -0.02580
Br2243     Br  0.84770281  0.65462692  0.02080838    -0.02280
H2244       H  0.90519985  0.62178779  0.01142116     0.09880
H2245       H  0.92800404  0.72758707  0.46430863     0.07900
Br2246     Br  0.98896349  0.70009511  0.47069489    -0.02710
C2247       C  0.91955321  0.88705795  0.99251117    -0.09340
C2248       C  0.89372332  0.89219250  0.51324774     0.06850
C2249       C  0.89220226  0.92124092  0.53080094    -0.03110
C2250       C  0.91554749  0.94469027  0.52633384    -0.07560
C2251       C  0.94100223  0.93959139  0.50511816     0.05970
C2252       C  0.94305912  0.91016790  0.98845495    -0.02580
Br2253     Br  0.97607743  0.90076466  0.95799532    -0.02280
H2254       H  0.92096923  0.86523805  0.97831288     0.09880
H2255       H  0.91416138  0.96680464  0.54006966     0.07900
Br2256     Br  0.86032760  0.92954870  0.56272735    -0.02710
loop_ 
_geom_bond_atom_site_label_1 
_geom_bond_atom_site_label_2 
_geom_bond_distance 
_geom_bond_site_symmetry_2 
_ccdc_geom_bond_type 
C1            C6   1.426       .  A
C1          C284   1.426       .  A
C1          C556   1.488       .  S
C2            C3   1.401   1_554  A
C2          C283   1.426       .  A
C2            H7   1.083       .  S
C3            C4   1.397       .  A
C3           C12   1.502   1_556  S
C4          C287   1.396       .  A
C4            H8   1.062       .  S
C5            C6   1.402       .  A
C5          C286   1.396       .  A
C5          C312   1.503       .  S
C6            H9   1.081       .  S
C10          C11   1.431       .  A
C10          C15   1.429       .  A
C10         C267   1.502       .  S
C11          C12   1.399   1_556  A
C11          H16   1.080       .  S
C12          C13   1.393       .  A
C13          C14   1.394   1_554  A
C13          H17   1.060       .  S
C14          C15   1.405       .  A
C14          C23   1.503       .  S
C15          H18   1.082       .  S
C19          C20   1.429       .  A
C19          C24   1.426       .  A
C19         C254   1.493       .  S
C20          C21   1.403       .  A
C20          H25   1.083       .  S
C21          C22   1.395   1_554  A
C21          C32   1.505       .  S
C22          C23   1.398       .  A
C22          H26   1.062       .  S
C23          C24   1.401   1_556  A
C24          H27   1.079       .  S
C28          C29   1.428       .  A
C28          C33   1.434       .  A
C28         C244   1.514       .  S
C29          C30   1.406       .  A
C29          H34   1.080       .  S
C30          C31   1.397   1_556  A
C30         C287   1.503       .  S
C31          C32   1.396       .  A
C31          H35   1.064       .  S
C32          C33   1.399   1_554  A
C33          H36   1.078       .  S
C37          C38   1.425       .  A
C37          C42   1.427       .  A
C37         C234   1.491       .  S
C38          C39   1.402       .  A
C38          H43   1.083       .  S
C39          C40   1.393       .  A
C39          C48   1.497       .  S
C40          C41   1.393       .  A
C40          H44   1.060       .  S
C41          C42   1.398       .  A
C41          C66   1.498       .  S
C42          H45   1.081       .  S
C46          C47   1.424       .  A
C46          C51   1.423       .  A
C46         C224   1.482       .  S
C47          C48   1.400       .  A
C47          H52   1.083       .  S
C48          C49   1.396       .  A
C49          C50   1.396       .  A
C49          H53   1.063       .  S
C50          C51   1.399       .  A
C50          C57   1.498       .  S
C51          H54   1.081       .  S
C55          C56   1.422       .  A
C55          C60   1.425       .  A
C55         C214   1.482       .  S
C56          C57   1.397       .  A
C56          H61   1.081       .  S
C57          C58   1.398       .  A
C58          C59   1.398       .  A
C58          H62   1.063       .  S
C59          C60   1.402       .  A
C59          C68   1.501       .  S
C60          H63   1.083       .  S
C64          C65   1.423       .  A
C64          C69   1.427       .  A
C64         C204   1.486       .  S
C65          C66   1.398       .  A
C65          H70   1.080       .  S
C66          C67   1.396       .  A
C67          C68   1.394       .  A
C67          H71   1.062       .  S
C68          C69   1.402       .  A
C69          H72   1.083       .  S
C73          C74   1.414       .  A
C73          C78   1.419       .  A
C73         C194   1.483       .  S
C74          C75   1.396       .  A
C74          H79   1.083       .  S
C75          C76   1.395       .  A
C75          C84   1.487       .  S
C76          C77   1.406       .  A
C76          H80   1.076       .  S
C77          C78   1.409       .  A
C77          C93   1.510       .  S
C78          H81   1.083       .  S
C82          C83   1.411       .  A
C82          C87   1.418       .  A
C82         C187   1.484       .  S
C83          C84   1.397       .  A
C83          H88   1.083       .  S
C84          C85   1.405       .  A
C85          C86   1.412       .  A
C85          H89   1.082   1_455  S
C86          C87   1.413       .  A
C86         C102   1.515       .  S
C87          H90   1.082       .  S
C91          C92   1.419       .  A
C91          C96   1.411       .  A
C91         C174   1.491       .  S
C92          C93   1.413       .  A
C92          H97   1.082       .  S
C93          C94   1.410       .  A
C94          C95   1.403       .  A
C94          H98   1.082       .  S
C95          C96   1.396       .  A
C95         C104   1.483       .  S
C96          H99   1.083       .  S
C100        C101   1.419       .  A
C100        C105   1.409       .  A
C100        C167   1.474       .  S
C101        C102   1.413       .  A
C101        H106   1.083       .  S
C102        C103   1.408       .  A
C103        C104   1.396       .  A
C103        H107   1.075       .  S
C104        C105   1.391       .  A
C105        H108   1.084       .  S
O109        C120   1.294       .  A
O109       Zr709   2.446   1_554  S
O110        C121   1.296       .  A
O110       Zr708   2.452   1_556  S
O111        C122   1.296       .  A
O111       Zr399   2.459       .  S
O112        C123   1.295       .  A
O112       Zr117   2.451   1_554  S
O113        C123   1.289       .  A
O113       Zr711   2.425       .  S
O114        C122   1.289       .  A
O114       Zr710   2.425       .  S
O115        C121   1.289       .  A
O115       Zr117   2.434       .  S
O116        C120   1.292       .  A
O116      Zr1245   2.436   1_554  S
Zr117       O393   2.459       .  S
Zr117      O1244   2.436   1_456  S
Zr117       O682   2.347   1_556  S
Zr117       O965   2.346       .  S
Zr117       O691   2.335   1_556  S
Zr117       O971   2.332       .  S
O118       Zr144   2.340       .  S
O118       Zr147   2.346       .  S
O118       Zr681   2.347   1_544  S
O119       Zr146   2.346       .  S
O119       Zr963   2.346   1_545  S
O119      Zr1555   2.343   1_455  S
C120        C277   1.480       .  S
C121        C247   1.498       .  S
C122        C184   1.473       .  S
C123        C164   1.478       .  S
H124        O125   0.965       .  S
O125       Zr146   2.333       .  S
O125       Zr963   2.332   1_545  S
O125       Zr426   2.336       .  S
H126        O127   0.965       .  S
O127       Zr147   2.335       .  S
O127       Zr681   2.335   1_544  S
O127      Zr1273   2.338   1_454  S
O128        C151   1.294       .  A
O128       Zr144   2.446       .  S
O129        C152   1.296       .  A
O129       Zr145   2.452       .  S
O130        C153   1.293       .  A
O130       Zr146   2.443       .  S
O131        C154   1.295       .  A
O131       Zr147   2.455       .  S
O132        C155   1.294       .  A
O132      Zr1275   2.451       .  S
O133        C156   1.290       .  A
O133      Zr1274   2.437       .  S
O134        C157   1.294       .  A
O134       Zr430   2.450       .  S
O135        C158   1.294       .  A
O135       Zr148   2.451       .  S
O136        C157   1.290       .  A
O136       Zr146   2.432       .  S
O137        C158   1.290       .  A
O137       Zr147   2.426       .  S
O138        C153   1.289       .  A
O138       Zr426   2.422       .  S
O139        C156   1.292       .  A
O139       Zr427   2.432       .  S
O140        C155   1.290       .  A
O140       Zr145   2.427   1_554  S
O141        C154   1.289       .  A
O141       Zr144   2.420       .  S
O142        C151   1.292       .  A
O142       Zr148   2.437       .  S
O143        C152   1.290       .  A
O143      Zr1276   2.434   1_556  S
Zr144       O674   2.452   1_544  S
Zr144       O420   2.422   1_554  S
Zr144       O162   2.339       .  S
Zr144       O407   2.336   1_554  S
Zr144       O432   2.344   1_554  S
Zr145       O673   2.446   1_546  S
Zr145       O421   2.432       .  S
Zr145      O1529   2.343       .  S
Zr145      O1255   2.338   1_556  S
Zr145      O1277   2.343   1_556  S
Zr145      O1570   2.334       .  S
Zr146       O678   2.425   1_545  S
Zr146      O1261   2.437   1_455  S
Zr146       O150   2.345       .  S
Zr146       O160   2.333       .  S
Zr147       O677   2.425   1_545  S
Zr147      O1260   2.451   1_455  S
Zr147       O149   2.348       .  S
Zr147       O162   2.333       .  S
Zr148       O416   2.450   1_554  S
Zr148      O1271   2.434   1_454  S
Zr148       O149   2.346       .  S
Zr148       O162   2.336       .  S
Zr148       O432   2.350   1_554  S
Zr148       O442   2.333   1_554  S
O149      Zr1273   2.343   1_454  S
O150       Zr426   2.344       .  S
O150       Zr430   2.350       .  S
C151        C257   1.485       .  S
C152        C264   1.494       .  S
C153        C227   1.470       .  S
C154        C217   1.476       .  S
C155        C207   1.479       .  S
C156        C237   1.482       .  S
C157        C197   1.468       .  S
C158        C177   1.476       .  S
H159        O160   0.965       .  S
O160      Zr1555   2.334   1_455  S
O160       Zr430   2.333       .  S
H161        O162   0.965       .  S
C163        C164   1.403       .  A
C163        C168   1.396       .  A
C163        H170   1.084       .  S
C164        C165   1.415       .  A
C165        C166   1.402       .  A
C165       Br172   1.922       .  S
C166        C167   1.401       .  A
C166        H171   1.083       .  S
C167        C168   1.408       .  A
C168      Br1297   1.920   1_455  S
Br169      C1296   1.920       .  S
C173        C174   1.411       .  A
C173        C178   1.402       .  A
C173        H180   1.083       .  S
C174        C175   1.413       .  A
C175        C176   1.396       .  A
C175       Br182   1.918       .  S
C176        C177   1.402       .  A
C176        H181   1.083       .  S
C177        C178   1.408       .  A
C178       Br179   1.921   1_455  S
C183        C184   1.401       .  A
C183        C188   1.399       .  A
C183        H190   1.084   1_455  S
C184        C185   1.407       .  A
C185        C186   1.401       .  A
C185       Br192   1.915       .  S
C186        C187   1.407       .  A
C186        H191   1.083       .  S
C187        C188   1.412       .  A
C188      Br1317   1.920   1_455  S
Br189      C1316   1.920       .  S
C193        C194   1.406       .  A
C193        C198   1.400       .  A
C193       H1328   1.083   1_455  S
C194        C195   1.413       .  A
C195        C196   1.399       .  A
C195       Br202   1.920       .  S
C196        C197   1.399       .  A
C196        H201   1.084       .  S
C197        C198   1.407       .  A
C198      Br1327   1.919   1_455  S
Br199      C1326   1.919       .  S
H200       C1321   1.083       .  S
C203        C204   1.405       .  A
C203        C208   1.393       .  A
C203        H210   1.084       .  S
C204        C205   1.413       .  A
C205        C206   1.403       .  A
C205       Br212   1.919   1_545  S
C206        C207   1.406       .  A
C206        H211   1.084       .  S
C207        C208   1.410       .  A
C208       Br209   1.918       .  S
C213        C214   1.404       .  A
C213        C218   1.393       .  A
C213        H220   1.084       .  S
C214        C215   1.410       .  A
C215        C216   1.403       .  A
C215       Br222   1.916       .  S
C216        C217   1.405       .  A
C216        H221   1.083       .  S
C217        C218   1.410       .  A
C218       Br219   1.920   1_545  S
C223        C224   1.407       .  A
C223        C228   1.392       .  A
C223        H230   1.084       .  S
C224        C225   1.412       .  A
C225        C226   1.401       .  A
C225       Br232   1.919   1_545  S
C226        C227   1.405       .  A
C226        H231   1.084       .  S
C227        C228   1.407       .  A
C228       Br229   1.923       .  S
C233        C234   1.407       .  A
C233        C238   1.399       .  A
C233        H240   1.082       .  S
C234        C235   1.419       .  A
C235        C236   1.394       .  A
C235       Br242   1.926       .  S
C236        C237   1.402       .  A
C236        H241   1.084       .  S
C237        C238   1.414       .  A
C238       Br239   1.921       .  S
C243        C244   1.412       .  A
C243        C248   1.400       .  A
C243        H250   1.078       .  S
C244        C527   1.427       .  A
C245        C246   1.400       .  A
C245        C526   1.427       .  A
C245       Br252   1.926       .  S
C246        C529   1.404       .  A
C246        H251   1.082       .  S
C247        C248   1.417       .  A
C247        C528   1.404       .  A
C248       Br249   1.927       .  S
C253        C258   1.396       .  A
C253        C536   1.408       .  A
C253        H260   1.083       .  S
C254        C255   1.415       .  A
C254        C535   1.408   1_554  A
C255        C256   1.403       .  A
C255       Br262   1.921       .  S
C256        C257   1.407       .  A
C256        H261   1.084       .  S
C257        C540   1.412   1_554  A
C258        C539   1.412       .  A
C258       Br259   1.924       .  S
C263        C268   1.398       .  A
C263        C546   1.403       .  A
C263        H270   1.081       .  S
C264        C265   1.418       .  A
C264        C545   1.403   1_556  A
C265        C266   1.401       .  A
C265       Br272   1.925       .  S
C266        C267   1.410       .  A
C266        H271   1.081       .  S
C267        C550   1.421       .  A
C268        C549   1.422       .  A
C268       Br269   1.926       .  S
C273        C278   1.396       .  A
C273        C556   1.407       .  A
C273        H280   1.084       .  S
C274        C275   1.413       .  A
C274        C555   1.407   1_554  A
C274        C283   1.488       .  S
C275        C276   1.403       .  A
C275       Br282   1.920       .  S
C276        C277   1.407       .  A
C276        H281   1.084       .  S
C277        C560   1.409   1_554  A
C278        C559   1.409       .  A
C278       Br279   1.923       .  S
C283        C288   1.426       .  A
C284        C285   1.401       .  A
C284        H289   1.083       .  S
C285        C286   1.397       .  A
C285        C294   1.502       .  S
C286        H290   1.062       .  S
C287        C288   1.402   1_556  A
C288        H291   1.081       .  S
C292        C293   1.431       .  A
C292        C297   1.429       .  A
C292        C549   1.502       .  S
C293        C294   1.399       .  A
C293        H298   1.080       .  S
C294        C295   1.393       .  A
C295        C296   1.394       .  A
C295        H299   1.060       .  S
C296        C297   1.405       .  A
C296        C305   1.503       .  S
C297        H300   1.082       .  S
C301        C302   1.429       .  A
C301        C306   1.426       .  A
C301        C536   1.493       .  S
C302        C303   1.403       .  A
C302        H307   1.083       .  S
C303        C304   1.395       .  A
C303        C314   1.505       .  S
C304        C305   1.398       .  A
C304        H308   1.062       .  S
C305        C306   1.401       .  A
C306        H309   1.079       .  S
C310        C311   1.428       .  A
C310        C315   1.434       .  A
C310        C526   1.514       .  S
C311        C312   1.406       .  A
C311        H316   1.080       .  S
C312        C313   1.397       .  A
C313        C314   1.396       .  A
C313        H317   1.063       .  S
C314        C315   1.399       .  A
C315        H318   1.078       .  S
C319        C320   1.425       .  A
C319        C324   1.427       .  A
C319        C516   1.491       .  S
C320        C321   1.402       .  A
C320        H325   1.083       .  S
C321        C322   1.393       .  A
C321        C330   1.497       .  S
C322        C323   1.393       .  A
C322        H326   1.060       .  S
C323        C324   1.398       .  A
C323        C348   1.498       .  S
C324        H327   1.081       .  S
C328        C329   1.424       .  A
C328        C333   1.423       .  A
C328        C506   1.482       .  S
C329        C330   1.400       .  A
C329        H334   1.083       .  S
C330        C331   1.396       .  A
C331        C332   1.396       .  A
C331        H335   1.063       .  S
C332        C333   1.399       .  A
C332        C339   1.498       .  S
C333        H336   1.081       .  S
C337        C338   1.422       .  A
C337        C342   1.425       .  A
C337        C496   1.482       .  S
C338        C339   1.397       .  A
C338        H343   1.081       .  S
C339        C340   1.398       .  A
C340        C341   1.398       .  A
C340        H344   1.063       .  S
C341        C342   1.402       .  A
C341        C350   1.501       .  S
C342        H345   1.083       .  S
C346        C347   1.423       .  A
C346        C351   1.427       .  A
C346        C486   1.486       .  S
C347        C348   1.398       .  A
C347        H352   1.080       .  S
C348        C349   1.396       .  A
C349        C350   1.394       .  A
C349        H353   1.062       .  S
C350        C351   1.402       .  A
C351        H354   1.083       .  S
C355        C356   1.415       .  A
C355        C360   1.419       .  A
C355        C476   1.483       .  S
C356        C357   1.396       .  A
C356        H361   1.083       .  S
C357        C358   1.395       .  A
C357        C366   1.487       .  S
C358        C359   1.406       .  A
C358        H362   1.076       .  S
C359        C360   1.409       .  A
C359        C375   1.510       .  S
C360        H363   1.083       .  S
C364        C365   1.411       .  A
C364        C369   1.418       .  A
C364        C469   1.484       .  S
C365        C366   1.397       .  A
C365        H370   1.083       .  S
C366        C367   1.405       .  A
C367        C368   1.412       .  A
C367        H371   1.082   1_455  S
C368        C369   1.413       .  A
C368        C384   1.515       .  S
C369        H372   1.082       .  S
C373        C374   1.419       .  A
C373        C378   1.411       .  A
C373        C456   1.491       .  S
C374        C375   1.413       .  A
C374        H379   1.082       .  S
C375        C376   1.410       .  A
C376        C377   1.403       .  A
C376        H380   1.082       .  S
C377        C378   1.396       .  A
C377        C386   1.483       .  S
C378        H381   1.083       .  S
C382        C383   1.419       .  A
C382        C387   1.409       .  A
C382        C449   1.474       .  S
C383        C384   1.413       .  A
C383        H388   1.083       .  S
C384        C385   1.408       .  A
C385        C386   1.396       .  A
C385        H389   1.075       .  S
C386        C387   1.391       .  A
C387        H390   1.084       .  S
O391        C402   1.294       .  A
O391       Zr991   2.446       .  S
O392        C403   1.296       .  A
O392       Zr990   2.452       .  S
O393        C404   1.296       .  A
O394        C405   1.295       .  A
O394       Zr399   2.451       .  S
O395        C405   1.289       .  A
O395       Zr993   2.426       .  S
O396        C404   1.289       .  A
O396       Zr992   2.425       .  S
O397        C403   1.289       .  A
O397       Zr399   2.434       .  S
O398        C402   1.292       .  A
O398      Zr1527   2.436       .  S
Zr399      O1526   2.436   1_455  S
Zr399       O964   2.347       .  S
Zr399       O683   2.346       .  S
Zr399       O973   2.335       .  S
Zr399       O689   2.332       .  S
O400       Zr963   2.347   1_545  S
O400       Zr426   2.340       .  S
O400       Zr429   2.346       .  S
O401       Zr681   2.346   1_545  S
O401      Zr1273   2.343   1_455  S
O401       Zr428   2.346       .  S
C402        C559   1.480       .  S
C403        C529   1.498       .  S
C404        C466   1.473       .  S
C405        C446   1.478       .  S
H406        O407   0.965       .  S
O407       Zr681   2.332   1_545  S
O407       Zr428   2.333       .  S
H408        O409   0.965       .  S
O409       Zr963   2.335   1_545  S
O409      Zr1555   2.338   1_455  S
O409       Zr429   2.335       .  S
O410        C433   1.294       .  A
O410       Zr426   2.446       .  S
O411        C434   1.296       .  A
O411       Zr427   2.452       .  S
O412        C435   1.293       .  A
O412       Zr428   2.443       .  S
O413        C436   1.295       .  A
O413       Zr429   2.455       .  S
O414        C437   1.294       .  A
O414      Zr1557   2.451       .  S
O415        C438   1.290       .  A
O415      Zr1556   2.437       .  S
O416        C439   1.294       .  A
O417        C440   1.294       .  A
O417       Zr430   2.451       .  S
O418        C439   1.290       .  A
O418       Zr428   2.432       .  S
O419        C440   1.290       .  A
O419       Zr429   2.426       .  S
O420        C435   1.289       .  A
O421        C438   1.292       .  A
O422        C437   1.290       .  A
O422       Zr427   2.427       .  S
O423        C436   1.289       .  A
O423       Zr426   2.420       .  S
O424        C433   1.292       .  A
O424       Zr430   2.437       .  S
O425        C434   1.290       .  A
O425      Zr1558   2.434       .  S
Zr426       O956   2.452   1_545  S
Zr426       O444   2.339       .  S
Zr427       O955   2.446   1_545  S
Zr427      O1247   2.343       .  S
Zr427      O1537   2.338       .  S
Zr427      O1559   2.343       .  S
Zr427      O1288   2.334       .  S
Zr428       O960   2.425   1_545  S
Zr428      O1543   2.437   1_455  S
Zr428       O432   2.345       .  S
Zr428       O442   2.333       .  S
Zr429       O959   2.426   1_545  S
Zr429      O1542   2.451   1_455  S
Zr429       O431   2.348       .  S
Zr429       O444   2.333       .  S
Zr430      O1553   2.434   1_455  S
Zr430       O431   2.346       .  S
Zr430       O444   2.336       .  S
O431      Zr1555   2.343   1_455  S
C433        C539   1.485       .  S
C434        C546   1.494       .  S
C435        C509   1.470       .  S
C436        C499   1.476       .  S
C437        C489   1.479       .  S
C438        C519   1.482       .  S
C439        C479   1.468       .  S
C440        C459   1.476       .  S
H441        O442   0.965       .  S
O442      Zr1273   2.334   1_455  S
H443        O444   0.965       .  S
C445        C446   1.403       .  A
C445        C450   1.396       .  A
C445        H452   1.084       .  S
C446        C447   1.415       .  A
C447        C448   1.402       .  A
C447       Br454   1.922       .  S
C448        C449   1.401       .  A
C448        H453   1.083       .  S
C449        C450   1.408       .  A
C450      Br1579   1.920   1_455  S
Br451      C1578   1.920       .  S
C455        C456   1.411       .  A
C455        C460   1.402       .  A
C455        H462   1.083       .  S
C456        C457   1.413       .  A
C457        C458   1.396       .  A
C457       Br464   1.918       .  S
C458        C459   1.402       .  A
C458        H463   1.083       .  S
C459        C460   1.408       .  A
C460       Br461   1.921   1_455  S
C465        C466   1.401       .  A
C465        C470   1.399       .  A
C465        H472   1.084   1_455  S
C466        C467   1.406       .  A
C467        C468   1.401       .  A
C467       Br474   1.915       .  S
C468        C469   1.407       .  A
C468        H473   1.083       .  S
C469        C470   1.412       .  A
C470      Br1599   1.920   1_455  S
Br471      C1598   1.920       .  S
C475        C476   1.406       .  A
C475        C480   1.400       .  A
C475       H1610   1.083   1_455  S
C476        C477   1.413       .  A
C477        C478   1.399       .  A
C477       Br484   1.920       .  S
C478        C479   1.399       .  A
C478        H483   1.084       .  S
C479        C480   1.407       .  A
C480      Br1609   1.919   1_455  S
Br481      C1608   1.919       .  S
H482       C1603   1.083       .  S
C485        C486   1.405       .  A
C485        C490   1.393       .  A
C485        H492   1.084       .  S
C486        C487   1.413       .  A
C487        C488   1.403       .  A
C487       Br494   1.919   1_545  S
C488        C489   1.406       .  A
C488        H493   1.084       .  S
C489        C490   1.410       .  A
C490       Br491   1.918       .  S
C495        C496   1.404       .  A
C495        C500   1.393       .  A
C495        H502   1.084       .  S
C496        C497   1.410       .  A
C497        C498   1.403       .  A
C497       Br504   1.916       .  S
C498        C499   1.405       .  A
C498        H503   1.083       .  S
C499        C500   1.410       .  A
C500       Br501   1.920   1_545  S
C505        C506   1.407       .  A
C505        C510   1.392       .  A
C505        H512   1.084       .  S
C506        C507   1.412       .  A
C507        C508   1.401       .  A
C507       Br514   1.919   1_545  S
C508        C509   1.405       .  A
C508        H513   1.084       .  S
C509        C510   1.407       .  A
C510       Br511   1.923       .  S
C515        C516   1.407       .  A
C515        C520   1.399       .  A
C515        H522   1.082       .  S
C516        C517   1.419       .  A
C517        C518   1.394       .  A
C517       Br524   1.926       .  S
C518        C519   1.402       .  A
C518        H523   1.084       .  S
C519        C520   1.414       .  A
C520       Br521   1.921       .  S
C525        C526   1.412       .  A
C525        C530   1.400       .  A
C525        H532   1.078       .  S
C527        C528   1.400       .  A
C527       Br534   1.926   1_556  S
C528        H533   1.082   1_556  S
C529        C530   1.417       .  A
C530       Br531   1.927       .  S
C535        C540   1.396       .  A
C535        H542   1.083       .  S
C536        C537   1.415       .  A
C537        C538   1.403       .  A
C537       Br544   1.921       .  S
C538        C539   1.407       .  A
C538        H543   1.084       .  S
C540       Br541   1.924       .  S
C545        C550   1.398   1_554  A
C545        H552   1.081       .  S
C546        C547   1.418       .  A
C547        C548   1.401       .  A
C547       Br554   1.925       .  S
C548        C549   1.410       .  A
C548        H553   1.081       .  S
C550       Br551   1.926   1_556  S
C555        C560   1.396       .  A
C555        H562   1.084       .  S
C556        C557   1.413       .  A
C557        C558   1.403       .  A
C557       Br564   1.920       .  S
C558        C559   1.407       .  A
C558        H563   1.084       .  S
C560       Br561   1.923       .  S
C565        C848   1.426       .  A
C565        C570   1.426       .  A
C565       C1120   1.488       .  S
C566        C847   1.426       .  A
C566        C567   1.401   1_554  A
C566        H571   1.083       .  S
C567        C568   1.397       .  A
C567        C576   1.502   1_556  S
C568        C851   1.396       .  A
C568        H572   1.062       .  S
C569        C850   1.396       .  A
C569        C570   1.402       .  A
C569        C876   1.503       .  S
C570        H573   1.081       .  S
C574        C575   1.431       .  A
C574        C579   1.429       .  A
C574        C831   1.502       .  S
C575        C576   1.399   1_556  A
C575        H580   1.080       .  S
C576        C577   1.393       .  A
C577        C578   1.394   1_554  A
C577        H581   1.060       .  S
C578        C579   1.405       .  A
C578        C587   1.503       .  S
C579        H582   1.082       .  S
C583        C584   1.429       .  A
C583        C588   1.426       .  A
C583        C818   1.493       .  S
C584        C585   1.403       .  A
C584        H589   1.083       .  S
C585        C586   1.395   1_554  A
C585        C596   1.505       .  S
C586        C587   1.398       .  A
C586        H590   1.062       .  S
C587        C588   1.401   1_556  A
C588        H591   1.079       .  S
C592        C593   1.428       .  A
C592        C597   1.434       .  A
C592        C808   1.514       .  S
C593        C594   1.406       .  A
C593        H598   1.080       .  S
C594        C595   1.397   1_556  A
C594        C851   1.503       .  S
C595        C596   1.396       .  A
C595        H599   1.063       .  S
C596        C597   1.399   1_554  A
C597        H600   1.078       .  S
C601        C602   1.425       .  A
C601        C606   1.427       .  A
C601        C798   1.491       .  S
C602        C603   1.402       .  A
C602        H607   1.083       .  S
C603        C604   1.393       .  A
C603        C612   1.497       .  S
C604        C605   1.393       .  A
C604        H608   1.060       .  S
C605        C606   1.398       .  A
C605        C630   1.498       .  S
C606        H609   1.081       .  S
C610        C611   1.424       .  A
C610        C615   1.423       .  A
C610        C788   1.482       .  S
C611        C612   1.400       .  A
C611        H616   1.083       .  S
C612        C613   1.396       .  A
C613        C614   1.396       .  A
C613        H617   1.063       .  S
C614        C615   1.399       .  A
C614        C621   1.498       .  S
C615        H618   1.081       .  S
C619        C620   1.422       .  A
C619        C624   1.425       .  A
C619        C778   1.482       .  S
C620        C621   1.397       .  A
C620        H625   1.081       .  S
C621        C622   1.398       .  A
C622        C623   1.398       .  A
C622        H626   1.063       .  S
C623        C624   1.402       .  A
C623        C632   1.501       .  S
C624        H627   1.083       .  S
C628        C629   1.423       .  A
C628        C633   1.427       .  A
C628        C768   1.486       .  S
C629        C630   1.398       .  A
C629        H634   1.080       .  S
C630        C631   1.396       .  A
C631        C632   1.394       .  A
C631        H635   1.062       .  S
C632        C633   1.402       .  A
C633        H636   1.083       .  S
C637        C638   1.414       .  A
C637        C642   1.419       .  A
C637        C758   1.483       .  S
C638        C639   1.396       .  A
C638        H643   1.083       .  S
C639        C640   1.395       .  A
C639        C648   1.487       .  S
C640        C641   1.406       .  A
C640        H644   1.076       .  S
C641        C642   1.409       .  A
C641        C657   1.510       .  S
C642        H645   1.083       .  S
C646        C647   1.411       .  A
C646        C651   1.418       .  A
C646        C751   1.484       .  S
C647        C648   1.397       .  A
C647        H652   1.083       .  S
C648        C649   1.405       .  A
C649        C650   1.412       .  A
C649        H653   1.082   1_455  S
C650        C651   1.413       .  A
C650        C666   1.515       .  S
C651        H654   1.082       .  S
C655        C656   1.419       .  A
C655        C660   1.411       .  A
C655        C738   1.491       .  S
C656        C657   1.413       .  A
C656        H661   1.082       .  S
C657        C658   1.410       .  A
C658        C659   1.403       .  A
C658        H662   1.082       .  S
C659        C660   1.396       .  A
C659        C668   1.483       .  S
C660        H663   1.083       .  S
C664        C665   1.419       .  A
C664        C669   1.409       .  A
C664        C731   1.474       .  S
C665        C666   1.413       .  A
C665        H670   1.083       .  S
C666        C667   1.408       .  A
C667        C668   1.396       .  A
C667        H671   1.075       .  S
C668        C669   1.391       .  A
C669        H672   1.084       .  S
O673        C684   1.294       .  A
O674        C685   1.296       .  A
O675        C686   1.296       .  A
O675       Zr963   2.459       .  S
O676        C687   1.295       .  A
O676       Zr681   2.451   1_554  S
O677        C687   1.289       .  A
O678        C686   1.289       .  A
O679        C685   1.289       .  A
O679       Zr681   2.434       .  S
O680        C684   1.292       .  A
O680      Zr1809   2.436   1_554  S
Zr681       O957   2.459       .  S
Zr681      O1808   2.436   1_456  S
O682       Zr708   2.340       .  S
O682       Zr711   2.346       .  S
O683      Zr2119   2.343   1_455  S
O683       Zr710   2.346       .  S
C684        C841   1.480       .  S
C685        C811   1.498       .  S
C686        C748   1.473       .  S
C687        C728   1.478       .  S
H688        O689   0.965       .  S
O689       Zr990   2.336       .  S
O689       Zr710   2.333       .  S
H690        O691   0.965       .  S
O691      Zr1837   2.338   1_454  S
O691       Zr711   2.335       .  S
O692        C715   1.294       .  A
O692       Zr708   2.446       .  S
O693        C716   1.296       .  A
O693       Zr709   2.452       .  S
O694        C717   1.293       .  A
O694       Zr710   2.443       .  S
O695        C718   1.295       .  A
O695       Zr711   2.455       .  S
O696        C719   1.295       .  A
O696      Zr1839   2.451       .  S
O697        C720   1.290       .  A
O697      Zr1838   2.437       .  S
O698        C721   1.294       .  A
O698       Zr994   2.450       .  S
O699        C722   1.294       .  A
O699       Zr712   2.451       .  S
O700        C721   1.290       .  A
O700       Zr710   2.432       .  S
O701        C722   1.290       .  A
O701       Zr711   2.427       .  S
O702        C717   1.289       .  A
O702       Zr990   2.422       .  S
O703        C720   1.292       .  A
O703       Zr991   2.432       .  S
O704        C719   1.290       .  A
O704       Zr709   2.427   1_554  S
O705        C718   1.289       .  A
O705       Zr708   2.420       .  S
O706        C715   1.292       .  A
O706       Zr712   2.437       .  S
O707        C716   1.290       .  A
O707      Zr1840   2.434   1_556  S
Zr708       O984   2.422   1_554  S
Zr708       O971   2.336   1_554  S
Zr708       O996   2.344   1_554  S
Zr708       O726   2.339       .  S
Zr709       O985   2.432       .  S
Zr709      O2093   2.343       .  S
Zr709      O1819   2.338   1_556  S
Zr709      O1841   2.343   1_556  S
Zr709      O2134   2.334       .  S
Zr710      O1825   2.437   1_455  S
Zr710       O714   2.345       .  S
Zr710       O724   2.333       .  S
Zr711      O1824   2.451   1_455  S
Zr711       O713   2.348       .  S
Zr711       O726   2.333       .  S
Zr712       O980   2.450   1_554  S
Zr712      O1835   2.434   1_454  S
Zr712       O713   2.346       .  S
Zr712       O996   2.350   1_554  S
Zr712       O726   2.336       .  S
Zr712      O1006   2.333   1_554  S
O713      Zr1837   2.343   1_454  S
O714       Zr990   2.344       .  S
O714       Zr994   2.350       .  S
C715        C821   1.485       .  S
C716        C828   1.493       .  S
C717        C791   1.470       .  S
C718        C781   1.476       .  S
C719        C771   1.479       .  S
C720        C801   1.482       .  S
C721        C761   1.468       .  S
C722        C741   1.476       .  S
H723        O724   0.965       .  S
O724      Zr2119   2.334   1_455  S
O724       Zr994   2.333       .  S
H725        O726   0.965       .  S
C727        C728   1.403       .  A
C727        C732   1.396       .  A
C727        H734   1.084       .  S
C728        C729   1.415       .  A
C729        C730   1.402       .  A
C729       Br736   1.922       .  S
C730        C731   1.401       .  A
C730        H735   1.083       .  S
C731        C732   1.408       .  A
C732      Br1861   1.920   1_455  S
Br733      C1860   1.920       .  S
C737        C738   1.411       .  A
C737        C742   1.402       .  A
C737        H744   1.083       .  S
C738        C739   1.413       .  A
C739        C740   1.396       .  A
C739       Br746   1.918       .  S
C740        C741   1.402       .  A
C740        H745   1.083       .  S
C741        C742   1.408       .  A
C742       Br743   1.921   1_455  S
C747        C748   1.401       .  A
C747        C752   1.399       .  A
C747        H754   1.084   1_455  S
C748        C749   1.407       .  A
C749        C750   1.401       .  A
C749       Br756   1.915       .  S
C750        C751   1.407       .  A
C750        H755   1.083       .  S
C751        C752   1.412       .  A
C752      Br1881   1.920   1_455  S
Br753      C1880   1.920       .  S
C757        C758   1.406       .  A
C757        C762   1.400       .  A
C757       H1892   1.083   1_455  S
C758        C759   1.413       .  A
C759        C760   1.399       .  A
C759       Br766   1.920       .  S
C760        C761   1.399       .  A
C760        H765   1.084       .  S
C761        C762   1.407       .  A
C762      Br1891   1.919   1_455  S
Br763      C1890   1.919       .  S
H764       C1885   1.083       .  S
C767        C768   1.405       .  A
C767        C772   1.393       .  A
C767        H774   1.084       .  S
C768        C769   1.413       .  A
C769        C770   1.403       .  A
C769       Br776   1.919       .  S
C770        C771   1.406       .  A
C770        H775   1.084       .  S
C771        C772   1.410       .  A
C772       Br773   1.918       .  S
C777        C778   1.404       .  A
C777        C782   1.393       .  A
C777        H784   1.084       .  S
C778        C779   1.410       .  A
C779        C780   1.403       .  A
C779       Br786   1.916       .  S
C780        C781   1.405       .  A
C780        H785   1.083       .  S
C781        C782   1.410       .  A
C782       Br783   1.920       .  S
C787        C788   1.407       .  A
C787        C792   1.392       .  A
C787        H794   1.084       .  S
C788        C789   1.412       .  A
C789        C790   1.401       .  A
C789       Br796   1.919       .  S
C790        C791   1.405       .  A
C790        H795   1.084       .  S
C791        C792   1.407       .  A
C792       Br793   1.923       .  S
C797        C798   1.407       .  A
C797        C802   1.399       .  A
C797        H804   1.082       .  S
C798        C799   1.419       .  A
C799        C800   1.394       .  A
C799       Br806   1.926       .  S
C800        C801   1.402       .  A
C800        H805   1.084       .  S
C801        C802   1.414       .  A
C802       Br803   1.921       .  S
C807        C808   1.412       .  A
C807        C812   1.400       .  A
C807        H814   1.078       .  S
C808       C1091   1.427       .  A
C809       C1090   1.427       .  A
C809        C810   1.400       .  A
C809       Br816   1.926       .  S
C810       C1093   1.404       .  A
C810        H815   1.082       .  S
C811       C1092   1.404       .  A
C811        C812   1.417       .  A
C812       Br813   1.927       .  S
C817       C1100   1.408       .  A
C817        C822   1.396       .  A
C817        H824   1.083       .  S
C818       C1099   1.408   1_554  A
C818        C819   1.415       .  A
C819        C820   1.403       .  A
C819       Br826   1.921       .  S
C820        C821   1.407       .  A
C820        H825   1.084       .  S
C821       C1104   1.412   1_554  A
C822       C1103   1.412       .  A
C822       Br823   1.924       .  S
C827       C1110   1.403       .  A
C827        C832   1.398       .  A
C827        H834   1.081       .  S
C828       C1109   1.403   1_556  A
C828        C829   1.418       .  A
C829        C830   1.401       .  A
C829       Br836   1.925       .  S
C830        C831   1.409       .  A
C830        H835   1.081       .  S
C831       C1114   1.421       .  A
C832       C1113   1.422       .  A
C832       Br833   1.926       .  S
C837       C1120   1.407       .  A
C837        C842   1.396       .  A
C837        H844   1.084       .  S
C838       C1119   1.407   1_554  A
C838        C839   1.413       .  A
C838        C847   1.488       .  S
C839        C840   1.403       .  A
C839       Br846   1.920       .  S
C840        C841   1.407       .  A
C840        H845   1.084       .  S
C841       C1124   1.409   1_554  A
C842       C1123   1.409       .  A
C842       Br843   1.923       .  S
C847        C852   1.426       .  A
C848        C849   1.401       .  A
C848        H853   1.083       .  S
C849        C850   1.397       .  A
C849        C858   1.502       .  S
C850        H854   1.062       .  S
C851        C852   1.402   1_556  A
C852        H855   1.081       .  S
C856        C857   1.431       .  A
C856        C861   1.429       .  A
C856       C1113   1.502       .  S
C857        C858   1.399       .  A
C857        H862   1.080       .  S
C858        C859   1.393       .  A
C859        C860   1.394       .  A
C859        H863   1.060       .  S
C860        C861   1.405       .  A
C860        C869   1.503       .  S
C861        H864   1.082       .  S
C865        C866   1.429       .  A
C865        C870   1.426       .  A
C865       C1100   1.493       .  S
C866        C867   1.403       .  A
C866        H871   1.083       .  S
C867        C868   1.395       .  A
C867        C878   1.505       .  S
C868        C869   1.398       .  A
C868        H872   1.062       .  S
C869        C870   1.401       .  A
C870        H873   1.079       .  S
C874        C875   1.428       .  A
C874        C879   1.434       .  A
C874       C1090   1.514       .  S
C875        C876   1.406       .  A
C875        H880   1.080       .  S
C876        C877   1.397       .  A
C877        C878   1.396       .  A
C877        H881   1.063       .  S
C878        C879   1.399       .  A
C879        H882   1.078       .  S
C883        C884   1.425       .  A
C883        C888   1.427       .  A
C883       C1080   1.491       .  S
C884        C885   1.402       .  A
C884        H889   1.083       .  S
C885        C886   1.393       .  A
C885        C894   1.497       .  S
C886        C887   1.393       .  A
C886        H890   1.060       .  S
C887        C888   1.398       .  A
C887        C912   1.498       .  S
C888        H891   1.081       .  S
C892        C893   1.424       .  A
C892        C897   1.423       .  A
C892       C1070   1.482       .  S
C893        C894   1.400       .  A
C893        H898   1.083       .  S
C894        C895   1.396       .  A
C895        C896   1.396       .  A
C895        H899   1.063       .  S
C896        C897   1.399       .  A
C896        C903   1.498       .  S
C897        H900   1.081       .  S
C901        C902   1.422       .  A
C901        C906   1.425       .  A
C901       C1060   1.482       .  S
C902        C903   1.397       .  A
C902        H907   1.081       .  S
C903        C904   1.398       .  A
C904        C905   1.398       .  A
C904        H908   1.063       .  S
C905        C906   1.402       .  A
C905        C914   1.501       .  S
C906        H909   1.083       .  S
C910        C911   1.423       .  A
C910        C915   1.427       .  A
C910       C1050   1.486       .  S
C911        C912   1.398       .  A
C911        H916   1.080       .  S
C912        C913   1.396       .  A
C913        C914   1.394       .  A
C913        H917   1.062       .  S
C914        C915   1.402       .  A
C915        H918   1.083       .  S
C919        C920   1.415       .  A
C919        C924   1.419       .  A
C919       C1040   1.483       .  S
C920        C921   1.396       .  A
C920        H925   1.083       .  S
C921        C922   1.395       .  A
C921        C930   1.487       .  S
C922        C923   1.406       .  A
C922        H926   1.076       .  S
C923        C924   1.409       .  A
C923        C939   1.510       .  S
C924        H927   1.083       .  S
C928        C929   1.411       .  A
C928        C933   1.418       .  A
C928       C1033   1.484       .  S
C929        C930   1.397       .  A
C929        H934   1.083       .  S
C930        C931   1.405       .  A
C931        C932   1.412       .  A
C931        H935   1.082   1_455  S
C932        C933   1.413       .  A
C932        C948   1.515       .  S
C933        H936   1.082       .  S
C937        C938   1.419       .  A
C937        C942   1.411       .  A
C937       C1020   1.491       .  S
C938        C939   1.413       .  A
C938        H943   1.082       .  S
C939        C940   1.410       .  A
C940        C941   1.403       .  A
C940        H944   1.082       .  S
C941        C942   1.396       .  A
C941        C950   1.483       .  S
C942        H945   1.083       .  S
C946        C947   1.419       .  A
C946        C951   1.409       .  A
C946       C1013   1.474       .  S
C947        C948   1.413       .  A
C947        H952   1.083       .  S
C948        C949   1.408       .  A
C949        C950   1.396       .  A
C949        H953   1.075       .  S
C950        C951   1.391       .  A
C951        H954   1.084       .  S
O955        C966   1.294       .  A
O956        C967   1.296       .  A
O957        C968   1.296       .  A
O958        C969   1.295       .  A
O958       Zr963   2.451       .  S
O959        C969   1.289       .  A
O960        C968   1.289       .  A
O961        C967   1.289       .  A
O961       Zr963   2.434       .  S
O962        C966   1.292       .  A
O962      Zr2091   2.436       .  S
Zr963      O2090   2.436   1_455  S
O964       Zr990   2.340       .  S
O964       Zr993   2.346       .  S
O965      Zr1837   2.343   1_455  S
O965       Zr992   2.346       .  S
C966       C1123   1.480       .  S
C967       C1093   1.498       .  S
C968       C1030   1.473       .  S
C969       C1010   1.478       .  S
H970        O971   0.965       .  S
O971       Zr992   2.333       .  S
H972        O973   0.965       .  S
O973      Zr2119   2.338   1_455  S
O973       Zr993   2.335       .  S
O974        C997   1.294       .  A
O974       Zr990   2.446       .  S
O975        C998   1.296       .  A
O975       Zr991   2.452       .  S
O976        C999   1.293       .  A
O976       Zr992   2.443       .  S
O977       C1000   1.295       .  A
O977       Zr993   2.455       .  S
O978       C1001   1.295       .  A
O978      Zr2121   2.451       .  S
O979       C1002   1.290       .  A
O979      Zr2120   2.437       .  S
O980       C1003   1.294       .  A
O981       C1004   1.294       .  A
O981       Zr994   2.451       .  S
O982       C1003   1.290       .  A
O982       Zr992   2.432       .  S
O983       C1004   1.290       .  A
O983       Zr993   2.426       .  S
O984        C999   1.289       .  A
O985       C1002   1.292       .  A
O986       C1001   1.290       .  A
O986       Zr991   2.427       .  S
O987       C1000   1.289       .  A
O987       Zr990   2.420       .  S
O988        C997   1.292       .  A
O988       Zr994   2.437       .  S
O989        C998   1.290       .  A
O989      Zr2122   2.434       .  S
Zr990      O1008   2.339       .  S
Zr991      O1811   2.343       .  S
Zr991      O2101   2.338       .  S
Zr991      O2123   2.343       .  S
Zr991      O1852   2.334       .  S
Zr992      O2107   2.437   1_455  S
Zr992       O996   2.345       .  S
Zr992      O1006   2.333       .  S
Zr993      O2106   2.451   1_455  S
Zr993       O995   2.348       .  S
Zr993      O1008   2.333       .  S
Zr994      O2117   2.434   1_455  S
Zr994       O995   2.346       .  S
Zr994      O1008   2.336       .  S
O995      Zr2119   2.343   1_455  S
C997       C1103   1.485       .  S
C998       C1110   1.494       .  S
C999       C1073   1.470       .  S
C1000      C1063   1.476       .  S
C1001      C1053   1.479       .  S
C1002      C1083   1.482       .  S
C1003      C1043   1.468       .  S
C1004      C1023   1.476       .  S
H1005      O1006   0.965       .  S
O1006     Zr1837   2.334   1_455  S
H1007      O1008   0.965       .  S
C1009      C1010   1.403       .  A
C1009      C1014   1.396       .  A
C1009      H1016   1.084       .  S
C1010      C1011   1.415       .  A
C1011      C1012   1.402       .  A
C1011     Br1018   1.922       .  S
C1012      C1013   1.401       .  A
C1012      H1017   1.083       .  S
C1013      C1014   1.408       .  A
C1014     Br2143   1.920   1_455  S
Br1015     C2142   1.920       .  S
C1019      C1020   1.411       .  A
C1019      C1024   1.402       .  A
C1019      H1026   1.083       .  S
C1020      C1021   1.413       .  A
C1021      C1022   1.396       .  A
C1021     Br1028   1.918       .  S
C1022      C1023   1.402       .  A
C1022      H1027   1.083       .  S
C1023      C1024   1.408       .  A
C1024     Br1025   1.921   1_455  S
C1029      C1030   1.401       .  A
C1029      C1034   1.399       .  A
C1029      H1036   1.084   1_455  S
C1030      C1031   1.406       .  A
C1031      C1032   1.401       .  A
C1031     Br1038   1.915       .  S
C1032      C1033   1.407       .  A
C1032      H1037   1.083       .  S
C1033      C1034   1.412       .  A
C1034     Br2163   1.920   1_455  S
Br1035     C2162   1.920       .  S
C1039      C1040   1.406       .  A
C1039      C1044   1.400       .  A
C1039      H2174   1.083   1_455  S
C1040      C1041   1.413       .  A
C1041      C1042   1.399       .  A
C1041     Br1048   1.920       .  S
C1042      C1043   1.399       .  A
C1042      H1047   1.084       .  S
C1043      C1044   1.407       .  A
C1044     Br2173   1.919   1_455  S
Br1045     C2172   1.919       .  S
H1046      C2167   1.083       .  S
C1049      C1050   1.405       .  A
C1049      C1054   1.393       .  A
C1049      H1056   1.084       .  S
C1050      C1051   1.413       .  A
C1051      C1052   1.403       .  A
C1051     Br1058   1.919       .  S
C1052      C1053   1.406       .  A
C1052      H1057   1.084       .  S
C1053      C1054   1.410       .  A
C1054     Br1055   1.918       .  S
C1059      C1060   1.404       .  A
C1059      C1064   1.393       .  A
C1059      H1066   1.084       .  S
C1060      C1061   1.410       .  A
C1061      C1062   1.403       .  A
C1061     Br1068   1.916       .  S
C1062      C1063   1.405       .  A
C1062      H1067   1.083       .  S
C1063      C1064   1.410       .  A
C1064     Br1065   1.920       .  S
C1069      C1070   1.407       .  A
C1069      C1074   1.392       .  A
C1069      H1076   1.084       .  S
C1070      C1071   1.412       .  A
C1071      C1072   1.401       .  A
C1071     Br1078   1.919       .  S
C1072      C1073   1.405       .  A
C1072      H1077   1.084       .  S
C1073      C1074   1.407       .  A
C1074     Br1075   1.923       .  S
C1079      C1080   1.407       .  A
C1079      C1084   1.399       .  A
C1079      H1086   1.082       .  S
C1080      C1081   1.419       .  A
C1081      C1082   1.394       .  A
C1081     Br1088   1.926       .  S
C1082      C1083   1.402       .  A
C1082      H1087   1.084       .  S
C1083      C1084   1.414       .  A
C1084     Br1085   1.921       .  S
C1089      C1090   1.412       .  A
C1089      C1094   1.400       .  A
C1089      H1096   1.078       .  S
C1091      C1092   1.400       .  A
C1091     Br1098   1.926   1_556  S
C1092      H1097   1.082   1_556  S
C1093      C1094   1.417       .  A
C1094     Br1095   1.927       .  S
C1099      C1104   1.396       .  A
C1099      H1106   1.083       .  S
C1100      C1101   1.415       .  A
C1101      C1102   1.403       .  A
C1101     Br1108   1.921       .  S
C1102      C1103   1.407       .  A
C1102      H1107   1.084       .  S
C1104     Br1105   1.924       .  S
C1109      C1114   1.398   1_554  A
C1109      H1116   1.081       .  S
C1110      C1111   1.418       .  A
C1111      C1112   1.401       .  A
C1111     Br1118   1.925       .  S
C1112      C1113   1.410       .  A
C1112      H1117   1.081       .  S
C1114     Br1115   1.926   1_556  S
C1119      C1124   1.396       .  A
C1119      H1126   1.084       .  S
C1120      C1121   1.413       .  A
C1121      C1122   1.403       .  A
C1121     Br1128   1.920       .  S
C1122      C1123   1.407       .  A
C1122      H1127   1.084       .  S
C1124     Br1125   1.923       .  S
C1129      C1412   1.426       .  A
C1129      C1134   1.426       .  A
C1129      C1684   1.488       .  S
C1130      C1411   1.426       .  A
C1130      C1131   1.401   1_554  A
C1130      H1135   1.083       .  S
C1131      C1132   1.397       .  A
C1131      C1140   1.502   1_556  S
C1132      C1415   1.396       .  A
C1132      H1136   1.062       .  S
C1133      C1414   1.396       .  A
C1133      C1134   1.402       .  A
C1133      C1440   1.503       .  S
C1134      H1137   1.081       .  S
C1138      C1139   1.431       .  A
C1138      C1143   1.429       .  A
C1138      C1395   1.502       .  S
C1139      C1140   1.399   1_556  A
C1139      H1144   1.080       .  S
C1140      C1141   1.393       .  A
C1141      C1142   1.394   1_554  A
C1141      H1145   1.060       .  S
C1142      C1143   1.405       .  A
C1142      C1151   1.503       .  S
C1143      H1146   1.082       .  S
C1147      C1148   1.429       .  A
C1147      C1152   1.426       .  A
C1147      C1382   1.493       .  S
C1148      C1149   1.403       .  A
C1148      H1153   1.083       .  S
C1149      C1150   1.395   1_554  A
C1149      C1160   1.505       .  S
C1150      C1151   1.398       .  A
C1150      H1154   1.062       .  S
C1151      C1152   1.401   1_556  A
C1152      H1155   1.079       .  S
C1156      C1157   1.428       .  A
C1156      C1161   1.434       .  A
C1156      C1372   1.514       .  S
C1157      C1158   1.406       .  A
C1157      H1162   1.080       .  S
C1158      C1159   1.397   1_556  A
C1158      C1415   1.503       .  S
C1159      C1160   1.396       .  A
C1159      H1163   1.063       .  S
C1160      C1161   1.399   1_554  A
C1161      H1164   1.078       .  S
C1165      C1166   1.425       .  A
C1165      C1170   1.427       .  A
C1165      C1362   1.491       .  S
C1166      C1167   1.402       .  A
C1166      H1171   1.083       .  S
C1167      C1168   1.393       .  A
C1167      C1176   1.497       .  S
C1168      C1169   1.393       .  A
C1168      H1172   1.060       .  S
C1169      C1170   1.398       .  A
C1169      C1194   1.498       .  S
C1170      H1173   1.081       .  S
C1174      C1175   1.424       .  A
C1174      C1179   1.423       .  A
C1174      C1352   1.482       .  S
C1175      C1176   1.400       .  A
C1175      H1180   1.083       .  S
C1176      C1177   1.396       .  A
C1177      C1178   1.396       .  A
C1177      H1181   1.063       .  S
C1178      C1179   1.399       .  A
C1178      C1185   1.498       .  S
C1179      H1182   1.081       .  S
C1183      C1184   1.422       .  A
C1183      C1188   1.425       .  A
C1183      C1342   1.482       .  S
C1184      C1185   1.397       .  A
C1184      H1189   1.081       .  S
C1185      C1186   1.398       .  A
C1186      C1187   1.398       .  A
C1186      H1190   1.063       .  S
C1187      C1188   1.402       .  A
C1187      C1196   1.501       .  S
C1188      H1191   1.083       .  S
C1192      C1193   1.423       .  A
C1192      C1197   1.427       .  A
C1192      C1332   1.486       .  S
C1193      C1194   1.398       .  A
C1193      H1198   1.080       .  S
C1194      C1195   1.396       .  A
C1195      C1196   1.394       .  A
C1195      H1199   1.062       .  S
C1196      C1197   1.402       .  A
C1197      H1200   1.083       .  S
C1201      C1202   1.414       .  A
C1201      C1206   1.419       .  A
C1201      C1322   1.483       .  S
C1202      C1203   1.396       .  A
C1202      H1207   1.083       .  S
C1203      C1204   1.395       .  A
C1203      C1212   1.487       .  S
C1204      C1205   1.406       .  A
C1204      H1208   1.076       .  S
C1205      C1206   1.409       .  A
C1205      C1221   1.510       .  S
C1206      H1209   1.083       .  S
C1210      C1211   1.411       .  A
C1210      C1215   1.418       .  A
C1210      C1315   1.484       .  S
C1211      C1212   1.397       .  A
C1211      H1216   1.083       .  S
C1212      C1213   1.405       .  A
C1213      C1214   1.412       .  A
C1213      H1217   1.082       .  S
C1214      C1215   1.413       .  A
C1214      C1230   1.515       .  S
C1215      H1218   1.082       .  S
C1219      C1220   1.419       .  A
C1219      C1224   1.411       .  A
C1219      C1302   1.491       .  S
C1220      C1221   1.413       .  A
C1220      H1225   1.082       .  S
C1221      C1222   1.410       .  A
C1222      C1223   1.403       .  A
C1222      H1226   1.082       .  S
C1223      C1224   1.396       .  A
C1223      C1232   1.483       .  S
C1224      H1227   1.083       .  S
C1228      C1229   1.419       .  A
C1228      C1233   1.409       .  A
C1228      C1295   1.474       .  S
C1229      C1230   1.413       .  A
C1229      H1234   1.083       .  S
C1230      C1231   1.408       .  A
C1231      C1232   1.396       .  A
C1231      H1235   1.075       .  S
C1232      C1233   1.391       .  A
C1233      H1236   1.084       .  S
O1237      C1248   1.294       .  A
O1237     Zr1837   2.446   1_554  S
O1238      C1249   1.296       .  A
O1238     Zr1836   2.452   1_556  S
O1239      C1250   1.296       .  A
O1239     Zr1527   2.459       .  S
O1240      C1251   1.295       .  A
O1240     Zr1245   2.451   1_554  S
O1241      C1251   1.289       .  A
O1241     Zr1839   2.425       .  S
O1242      C1250   1.289       .  A
O1242     Zr1838   2.425       .  S
O1243      C1249   1.289       .  A
O1243     Zr1245   2.434       .  S
O1244      C1248   1.292       .  A
Zr1245     O1521   2.459       .  S
Zr1245     O1810   2.347   1_556  S
Zr1245     O2093   2.346       .  S
Zr1245     O1819   2.335   1_556  S
Zr1245     O2099   2.332       .  S
O1246     Zr1809   2.347   1_544  S
O1246     Zr1272   2.340       .  S
O1246     Zr1275   2.346       .  S
O1247     Zr2091   2.346   1_545  S
O1247     Zr1274   2.346       .  S
C1248      C1405   1.480       .  S
C1249      C1375   1.498       .  S
C1250      C1312   1.473       .  S
C1251      C1292   1.478       .  S
H1252      O1253   0.965       .  S
O1253     Zr2091   2.332   1_545  S
O1253     Zr1554   2.336       .  S
O1253     Zr1274   2.333       .  S
H1254      O1255   0.965       .  S
O1255     Zr1809   2.335   1_544  S
O1255     Zr1275   2.335       .  S
O1256      C1279   1.294       .  A
O1256     Zr1272   2.446       .  S
O1257      C1280   1.296       .  A
O1257     Zr1273   2.452       .  S
O1258      C1281   1.293       .  A
O1258     Zr1274   2.443       .  S
O1259      C1282   1.295       .  A
O1259     Zr1275   2.455       .  S
O1260      C1283   1.295       .  A
O1261      C1284   1.290       .  A
O1262      C1285   1.294       .  A
O1262     Zr1558   2.450       .  S
O1263      C1286   1.294       .  A
O1263     Zr1276   2.451       .  S
O1264      C1285   1.290       .  A
O1264     Zr1274   2.432       .  S
O1265      C1286   1.290       .  A
O1265     Zr1275   2.427       .  S
O1266      C1281   1.289       .  A
O1266     Zr1554   2.422       .  S
O1267      C1284   1.292       .  A
O1267     Zr1555   2.432       .  S
O1268      C1283   1.290       .  A
O1268     Zr1273   2.427   1_554  S
O1269      C1282   1.289       .  A
O1269     Zr1272   2.420       .  S
O1270      C1279   1.292       .  A
O1270     Zr1276   2.437       .  S
O1271      C1280   1.290       .  A
Zr1272     O1802   2.452   1_544  S
Zr1272     O1548   2.422   1_554  S
Zr1272     O1535   2.336   1_554  S
Zr1272     O1560   2.344   1_554  S
Zr1272     O1290   2.339       .  S
Zr1273     O1801   2.446   1_546  S
Zr1273     O1549   2.432       .  S
Zr1274     O1806   2.425   1_545  S
Zr1274     O1278   2.345       .  S
Zr1274     O1288   2.333       .  S
Zr1275     O1805   2.425   1_545  S
Zr1275     O1277   2.348       .  S
Zr1275     O1290   2.333       .  S
Zr1276     O1544   2.450   1_554  S
Zr1276     O1277   2.346       .  S
Zr1276     O1560   2.350   1_554  S
Zr1276     O1290   2.336       .  S
Zr1276     O1570   2.333   1_554  S
O1278     Zr1554   2.344       .  S
O1278     Zr1558   2.350       .  S
C1279      C1385   1.485       .  S
C1280      C1392   1.493       .  S
C1281      C1355   1.470       .  S
C1282      C1345   1.476       .  S
C1283      C1335   1.479       .  S
C1284      C1365   1.482       .  S
C1285      C1325   1.468       .  S
C1286      C1305   1.476       .  S
H1287      O1288   0.965       .  S
O1288     Zr1558   2.333       .  S
H1289      O1290   0.965       .  S
C1291      C1292   1.403       .  A
C1291      C1296   1.396       .  A
C1291      H1298   1.084       .  S
C1292      C1293   1.415       .  A
C1293      C1294   1.402       .  A
C1293     Br1300   1.922       .  S
C1294      C1295   1.401       .  A
C1294      H1299   1.083       .  S
C1295      C1296   1.408       .  A
C1301      C1302   1.411       .  A
C1301      C1306   1.402       .  A
C1301      H1308   1.083       .  S
C1302      C1303   1.413       .  A
C1303      C1304   1.396       .  A
C1303     Br1310   1.918       .  S
C1304      C1305   1.402       .  A
C1304      H1309   1.083       .  S
C1305      C1306   1.408       .  A
C1306     Br1307   1.921       .  S
C1311      C1312   1.401       .  A
C1311      C1316   1.399       .  A
C1311      H1318   1.084       .  S
C1312      C1313   1.407       .  A
C1313      C1314   1.401       .  A
C1313     Br1320   1.915       .  S
C1314      C1315   1.407       .  A
C1314      H1319   1.083       .  S
C1315      C1316   1.412       .  A
C1321      C1322   1.406       .  A
C1321      C1326   1.400       .  A
C1322      C1323   1.413       .  A
C1323      C1324   1.399       .  A
C1323     Br1330   1.920       .  S
C1324      C1325   1.399       .  A
C1324      H1329   1.084       .  S
C1325      C1326   1.407       .  A
C1331      C1332   1.405       .  A
C1331      C1336   1.393       .  A
C1331      H1338   1.084       .  S
C1332      C1333   1.413       .  A
C1333      C1334   1.403       .  A
C1333     Br1340   1.919   1_545  S
C1334      C1335   1.406       .  A
C1334      H1339   1.084       .  S
C1335      C1336   1.410       .  A
C1336     Br1337   1.918       .  S
C1341      C1342   1.404       .  A
C1341      C1346   1.393       .  A
C1341      H1348   1.084       .  S
C1342      C1343   1.410       .  A
C1343      C1344   1.403       .  A
C1343     Br1350   1.916       .  S
C1344      C1345   1.405       .  A
C1344      H1349   1.083       .  S
C1345      C1346   1.410       .  A
C1346     Br1347   1.920   1_545  S
C1351      C1352   1.407       .  A
C1351      C1356   1.392       .  A
C1351      H1358   1.084       .  S
C1352      C1353   1.412       .  A
C1353      C1354   1.401       .  A
C1353     Br1360   1.919   1_545  S
C1354      C1355   1.405       .  A
C1354      H1359   1.084       .  S
C1355      C1356   1.407       .  A
C1356     Br1357   1.923       .  S
C1361      C1362   1.407       .  A
C1361      C1366   1.399       .  A
C1361      H1368   1.082       .  S
C1362      C1363   1.419       .  A
C1363      C1364   1.394       .  A
C1363     Br1370   1.926       .  S
C1364      C1365   1.402       .  A
C1364      H1369   1.084       .  S
C1365      C1366   1.414       .  A
C1366     Br1367   1.921       .  S
C1371      C1372   1.412       .  A
C1371      C1376   1.400       .  A
C1371      H1378   1.078       .  S
C1372      C1655   1.427       .  A
C1373      C1654   1.427       .  A
C1373      C1374   1.400       .  A
C1373     Br1380   1.926       .  S
C1374      C1657   1.404       .  A
C1374      H1379   1.082       .  S
C1375      C1656   1.404       .  A
C1375      C1376   1.417       .  A
C1376     Br1377   1.927       .  S
C1381      C1664   1.408       .  A
C1381      C1386   1.396       .  A
C1381      H1388   1.083       .  S
C1382      C1663   1.408   1_554  A
C1382      C1383   1.415       .  A
C1383      C1384   1.403       .  A
C1383     Br1390   1.921       .  S
C1384      C1385   1.407       .  A
C1384      H1389   1.084       .  S
C1385      C1668   1.412   1_554  A
C1386      C1667   1.412       .  A
C1386     Br1387   1.924       .  S
C1391      C1674   1.403       .  A
C1391      C1396   1.398       .  A
C1391      H1398   1.081       .  S
C1392      C1673   1.403   1_556  A
C1392      C1393   1.418       .  A
C1393      C1394   1.401       .  A
C1393     Br1400   1.925       .  S
C1394      C1395   1.409       .  A
C1394      H1399   1.081       .  S
C1395      C1678   1.421       .  A
C1396      C1677   1.422       .  A
C1396     Br1397   1.926       .  S
C1401      C1684   1.407       .  A
C1401      C1406   1.396       .  A
C1401      H1408   1.084       .  S
C1402      C1683   1.407   1_554  A
C1402      C1403   1.413       .  A
C1402      C1411   1.488       .  S
C1403      C1404   1.403       .  A
C1403     Br1410   1.920       .  S
C1404      C1405   1.407       .  A
C1404      H1409   1.084       .  S
C1405      C1688   1.409   1_554  A
C1406      C1687   1.409       .  A
C1406     Br1407   1.923       .  S
C1411      C1416   1.426       .  A
C1412      C1413   1.401       .  A
C1412      H1417   1.083       .  S
C1413      C1414   1.397       .  A
C1413      C1422   1.502       .  S
C1414      H1418   1.062       .  S
C1415      C1416   1.402   1_556  A
C1416      H1419   1.081       .  S
C1420      C1421   1.431       .  A
C1420      C1425   1.429       .  A
C1420      C1677   1.502       .  S
C1421      C1422   1.399       .  A
C1421      H1426   1.080       .  S
C1422      C1423   1.393       .  A
C1423      C1424   1.394       .  A
C1423      H1427   1.060       .  S
C1424      C1425   1.405       .  A
C1424      C1433   1.503       .  S
C1425      H1428   1.082       .  S
C1429      C1430   1.429       .  A
C1429      C1434   1.426       .  A
C1429      C1664   1.493       .  S
C1430      C1431   1.403       .  A
C1430      H1435   1.083       .  S
C1431      C1432   1.395       .  A
C1431      C1442   1.505       .  S
C1432      C1433   1.398       .  A
C1432      H1436   1.062       .  S
C1433      C1434   1.401       .  A
C1434      H1437   1.079       .  S
C1438      C1439   1.428       .  A
C1438      C1443   1.434       .  A
C1438      C1654   1.514       .  S
C1439      C1440   1.406       .  A
C1439      H1444   1.080       .  S
C1440      C1441   1.397       .  A
C1441      C1442   1.396       .  A
C1441      H1445   1.063       .  S
C1442      C1443   1.399       .  A
C1443      H1446   1.078       .  S
C1447      C1448   1.425       .  A
C1447      C1452   1.427       .  A
C1447      C1644   1.491       .  S
C1448      C1449   1.402       .  A
C1448      H1453   1.083       .  S
C1449      C1450   1.393       .  A
C1449      C1458   1.497       .  S
C1450      C1451   1.393       .  A
C1450      H1454   1.060       .  S
C1451      C1452   1.398       .  A
C1451      C1476   1.498       .  S
C1452      H1455   1.081       .  S
C1456      C1457   1.424       .  A
C1456      C1461   1.423       .  A
C1456      C1634   1.482       .  S
C1457      C1458   1.400       .  A
C1457      H1462   1.083       .  S
C1458      C1459   1.396       .  A
C1459      C1460   1.396       .  A
C1459      H1463   1.063       .  S
C1460      C1461   1.399       .  A
C1460      C1467   1.498       .  S
C1461      H1464   1.081       .  S
C1465      C1466   1.422       .  A
C1465      C1470   1.425       .  A
C1465      C1624   1.482       .  S
C1466      C1467   1.397       .  A
C1466      H1471   1.081       .  S
C1467      C1468   1.398       .  A
C1468      C1469   1.398       .  A
C1468      H1472   1.063       .  S
C1469      C1470   1.402       .  A
C1469      C1478   1.501       .  S
C1470      H1473   1.083       .  S
C1474      C1475   1.423       .  A
C1474      C1479   1.427       .  A
C1474      C1614   1.486       .  S
C1475      C1476   1.398       .  A
C1475      H1480   1.080       .  S
C1476      C1477   1.396       .  A
C1477      C1478   1.394       .  A
C1477      H1481   1.062       .  S
C1478      C1479   1.402       .  A
C1479      H1482   1.083       .  S
C1483      C1484   1.415       .  A
C1483      C1488   1.419       .  A
C1483      C1604   1.483       .  S
C1484      C1485   1.396       .  A
C1484      H1489   1.083       .  S
C1485      C1486   1.395       .  A
C1485      C1494   1.487       .  S
C1486      C1487   1.406       .  A
C1486      H1490   1.076       .  S
C1487      C1488   1.409       .  A
C1487      C1503   1.510       .  S
C1488      H1491   1.083       .  S
C1492      C1493   1.411       .  A
C1492      C1497   1.418       .  A
C1492      C1597   1.484       .  S
C1493      C1494   1.397       .  A
C1493      H1498   1.083       .  S
C1494      C1495   1.405       .  A
C1495      C1496   1.412       .  A
C1495      H1499   1.082       .  S
C1496      C1497   1.413       .  A
C1496      C1512   1.515       .  S
C1497      H1500   1.082       .  S
C1501      C1502   1.419       .  A
C1501      C1506   1.411       .  A
C1501      C1584   1.491       .  S
C1502      C1503   1.413       .  A
C1502      H1507   1.082       .  S
C1503      C1504   1.410       .  A
C1504      C1505   1.403       .  A
C1504      H1508   1.082       .  S
C1505      C1506   1.396       .  A
C1505      C1514   1.483       .  S
C1506      H1509   1.083       .  S
C1510      C1511   1.419       .  A
C1510      C1515   1.409       .  A
C1510      C1577   1.474       .  S
C1511      C1512   1.413       .  A
C1511      H1516   1.083       .  S
C1512      C1513   1.408       .  A
C1513      C1514   1.396       .  A
C1513      H1517   1.075       .  S
C1514      C1515   1.391       .  A
C1515      H1518   1.084       .  S
O1519      C1530   1.294       .  A
O1519     Zr2119   2.446       .  S
O1520      C1531   1.296       .  A
O1520     Zr2118   2.452       .  S
O1521      C1532   1.296       .  A
O1522      C1533   1.295       .  A
O1522     Zr1527   2.451       .  S
O1523      C1533   1.289       .  A
O1523     Zr2121   2.426       .  S
O1524      C1532   1.289       .  A
O1524     Zr2120   2.425       .  S
O1525      C1531   1.289       .  A
O1525     Zr1527   2.434       .  S
O1526      C1530   1.292       .  A
Zr1527     O2092   2.347       .  S
Zr1527     O1811   2.346       .  S
Zr1527     O2101   2.335       .  S
Zr1527     O1817   2.332       .  S
O1528     Zr2091   2.347   1_545  S
O1528     Zr1554   2.340       .  S
O1528     Zr1557   2.346       .  S
O1529     Zr1809   2.346   1_545  S
O1529     Zr1556   2.346       .  S
C1530      C1687   1.480       .  S
C1531      C1657   1.498       .  S
C1532      C1594   1.473       .  S
C1533      C1574   1.478       .  S
H1534      O1535   0.965       .  S
O1535     Zr1809   2.332   1_545  S
O1535     Zr1556   2.333       .  S
H1536      O1537   0.965       .  S
O1537     Zr2091   2.335   1_545  S
O1537     Zr1557   2.335       .  S
O1538      C1561   1.294       .  A
O1538     Zr1554   2.446       .  S
O1539      C1562   1.296       .  A
O1539     Zr1555   2.452       .  S
O1540      C1563   1.293       .  A
O1540     Zr1556   2.443       .  S
O1541      C1564   1.295       .  A
O1541     Zr1557   2.455       .  S
O1542      C1565   1.294       .  A
O1543      C1566   1.290       .  A
O1544      C1567   1.294       .  A
O1545      C1568   1.294       .  A
O1545     Zr1558   2.451       .  S
O1546      C1567   1.290       .  A
O1546     Zr1556   2.432       .  S
O1547      C1568   1.290       .  A
O1547     Zr1557   2.426       .  S
O1548      C1563   1.289       .  A
O1549      C1566   1.292       .  A
O1550      C1565   1.290       .  A
O1550     Zr1555   2.427       .  S
O1551      C1564   1.289       .  A
O1551     Zr1554   2.420       .  S
O1552      C1561   1.292       .  A
O1552     Zr1558   2.437       .  S
O1553      C1562   1.290       .  A
Zr1554     O2084   2.452   1_545  S
Zr1554     O1572   2.339       .  S
Zr1555     O2083   2.446   1_545  S
Zr1556     O2088   2.425   1_545  S
Zr1556     O1560   2.345       .  S
Zr1556     O1570   2.333       .  S
Zr1557     O2087   2.426   1_545  S
Zr1557     O1559   2.348       .  S
Zr1557     O1572   2.333       .  S
Zr1558     O1559   2.346       .  S
Zr1558     O1572   2.336       .  S
C1561      C1667   1.485       .  S
C1562      C1674   1.494       .  S
C1563      C1637   1.470       .  S
C1564      C1627   1.476       .  S
C1565      C1617   1.479       .  S
C1566      C1647   1.482       .  S
C1567      C1607   1.468       .  S
C1568      C1587   1.476       .  S
H1569      O1570   0.965       .  S
H1571      O1572   0.965       .  S
C1573      C1574   1.403       .  A
C1573      C1578   1.396       .  A
C1573      H1580   1.084       .  S
C1574      C1575   1.415       .  A
C1575      C1576   1.402       .  A
C1575     Br1582   1.922       .  S
C1576      C1577   1.401       .  A
C1576      H1581   1.083       .  S
C1577      C1578   1.408       .  A
C1583      C1584   1.411       .  A
C1583      C1588   1.402       .  A
C1583      H1590   1.083       .  S
C1584      C1585   1.413       .  A
C1585      C1586   1.396       .  A
C1585     Br1592   1.918       .  S
C1586      C1587   1.402       .  A
C1586      H1591   1.083       .  S
C1587      C1588   1.408       .  A
C1588     Br1589   1.921       .  S
C1593      C1594   1.401       .  A
C1593      C1598   1.399       .  A
C1593      H1600   1.084       .  S
C1594      C1595   1.406       .  A
C1595      C1596   1.401       .  A
C1595     Br1602   1.915       .  S
C1596      C1597   1.407       .  A
C1596      H1601   1.083       .  S
C1597      C1598   1.412       .  A
C1603      C1604   1.406       .  A
C1603      C1608   1.400       .  A
C1604      C1605   1.413       .  A
C1605      C1606   1.399       .  A
C1605     Br1612   1.920       .  S
C1606      C1607   1.399       .  A
C1606      H1611   1.084       .  S
C1607      C1608   1.407       .  A
C1613      C1614   1.405       .  A
C1613      C1618   1.393       .  A
C1613      H1620   1.084       .  S
C1614      C1615   1.413       .  A
C1615      C1616   1.403       .  A
C1615     Br1622   1.919   1_545  S
C1616      C1617   1.406       .  A
C1616      H1621   1.084       .  S
C1617      C1618   1.410       .  A
C1618     Br1619   1.918       .  S
C1623      C1624   1.404       .  A
C1623      C1628   1.393       .  A
C1623      H1630   1.084       .  S
C1624      C1625   1.410       .  A
C1625      C1626   1.403       .  A
C1625     Br1632   1.916       .  S
C1626      C1627   1.405       .  A
C1626      H1631   1.083       .  S
C1627      C1628   1.410       .  A
C1628     Br1629   1.920   1_545  S
C1633      C1634   1.407       .  A
C1633      C1638   1.392       .  A
C1633      H1640   1.084       .  S
C1634      C1635   1.412       .  A
C1635      C1636   1.401       .  A
C1635     Br1642   1.919   1_545  S
C1636      C1637   1.405       .  A
C1636      H1641   1.084       .  S
C1637      C1638   1.407       .  A
C1638     Br1639   1.923       .  S
C1643      C1644   1.407       .  A
C1643      C1648   1.399       .  A
C1643      H1650   1.082       .  S
C1644      C1645   1.419       .  A
C1645      C1646   1.394       .  A
C1645     Br1652   1.926       .  S
C1646      C1647   1.402       .  A
C1646      H1651   1.084       .  S
C1647      C1648   1.414       .  A
C1648     Br1649   1.921       .  S
C1653      C1654   1.412       .  A
C1653      C1658   1.400       .  A
C1653      H1660   1.078       .  S
C1655      C1656   1.400       .  A
C1655     Br1662   1.926   1_556  S
C1656      H1661   1.082   1_556  S
C1657      C1658   1.417       .  A
C1658     Br1659   1.927       .  S
C1663      C1668   1.396       .  A
C1663      H1670   1.083       .  S
C1664      C1665   1.415       .  A
C1665      C1666   1.403       .  A
C1665     Br1672   1.921       .  S
C1666      C1667   1.407       .  A
C1666      H1671   1.084       .  S
C1668     Br1669   1.924       .  S
C1673      C1678   1.398   1_554  A
C1673      H1680   1.081       .  S
C1674      C1675   1.418       .  A
C1675      C1676   1.401       .  A
C1675     Br1682   1.925       .  S
C1676      C1677   1.410       .  A
C1676      H1681   1.081       .  S
C1678     Br1679   1.926   1_556  S
C1683      C1688   1.396       .  A
C1683      H1690   1.084       .  S
C1684      C1685   1.413       .  A
C1685      C1686   1.403       .  A
C1685     Br1692   1.920       .  S
C1686      C1687   1.407       .  A
C1686      H1691   1.084       .  S
C1688     Br1689   1.923       .  S
C1693      C1976   1.426       .  A
C1693      C1698   1.426       .  A
C1693      C2248   1.488       .  S
C1694      C1975   1.426       .  A
C1694      C1695   1.401   1_554  A
C1694      H1699   1.083       .  S
C1695      C1696   1.397       .  A
C1695      C1704   1.502   1_556  S
C1696      C1979   1.396       .  A
C1696      H1700   1.062       .  S
C1697      C1978   1.396       .  A
C1697      C1698   1.402       .  A
C1697      C2004   1.503       .  S
C1698      H1701   1.081       .  S
C1702      C1703   1.431       .  A
C1702      C1707   1.429       .  A
C1702      C1959   1.502       .  S
C1703      C1704   1.399   1_556  A
C1703      H1708   1.080       .  S
C1704      C1705   1.393       .  A
C1705      C1706   1.394   1_554  A
C1705      H1709   1.060       .  S
C1706      C1707   1.405       .  A
C1706      C1715   1.503       .  S
C1707      H1710   1.082       .  S
C1711      C1712   1.429       .  A
C1711      C1716   1.426       .  A
C1711      C1946   1.493       .  S
C1712      C1713   1.403       .  A
C1712      H1717   1.083       .  S
C1713      C1714   1.395   1_554  A
C1713      C1724   1.505       .  S
C1714      C1715   1.398       .  A
C1714      H1718   1.062       .  S
C1715      C1716   1.401   1_556  A
C1716      H1719   1.079       .  S
C1720      C1721   1.428       .  A
C1720      C1725   1.434       .  A
C1720      C1936   1.514       .  S
C1721      C1722   1.406       .  A
C1721      H1726   1.080       .  S
C1722      C1723   1.397   1_556  A
C1722      C1979   1.503       .  S
C1723      C1724   1.396       .  A
C1723      H1727   1.063       .  S
C1724      C1725   1.399   1_554  A
C1725      H1728   1.078       .  S
C1729      C1730   1.425       .  A
C1729      C1734   1.427       .  A
C1729      C1926   1.491       .  S
C1730      C1731   1.402       .  A
C1730      H1735   1.083       .  S
C1731      C1732   1.393       .  A
C1731      C1740   1.497       .  S
C1732      C1733   1.393       .  A
C1732      H1736   1.060       .  S
C1733      C1734   1.398       .  A
C1733      C1758   1.498       .  S
C1734      H1737   1.081       .  S
C1738      C1739   1.424       .  A
C1738      C1743   1.423       .  A
C1738      C1916   1.482       .  S
C1739      C1740   1.400       .  A
C1739      H1744   1.083       .  S
C1740      C1741   1.396       .  A
C1741      C1742   1.396       .  A
C1741      H1745   1.063       .  S
C1742      C1743   1.399       .  A
C1742      C1749   1.498       .  S
C1743      H1746   1.081       .  S
C1747      C1748   1.422       .  A
C1747      C1752   1.425       .  A
C1747      C1906   1.482       .  S
C1748      C1749   1.397       .  A
C1748      H1753   1.081       .  S
C1749      C1750   1.398       .  A
C1750      C1751   1.398       .  A
C1750      H1754   1.063       .  S
C1751      C1752   1.402       .  A
C1751      C1760   1.501       .  S
C1752      H1755   1.083       .  S
C1756      C1757   1.423       .  A
C1756      C1761   1.427       .  A
C1756      C1896   1.486       .  S
C1757      C1758   1.398       .  A
C1757      H1762   1.080       .  S
C1758      C1759   1.396       .  A
C1759      C1760   1.394       .  A
C1759      H1763   1.062       .  S
C1760      C1761   1.402       .  A
C1761      H1764   1.083       .  S
C1765      C1766   1.414       .  A
C1765      C1770   1.419       .  A
C1765      C1886   1.483       .  S
C1766      C1767   1.396       .  A
C1766      H1771   1.083       .  S
C1767      C1768   1.395       .  A
C1767      C1776   1.487       .  S
C1768      C1769   1.406       .  A
C1768      H1772   1.076       .  S
C1769      C1770   1.409       .  A
C1769      C1785   1.510       .  S
C1770      H1773   1.083       .  S
C1774      C1775   1.411       .  A
C1774      C1779   1.418       .  A
C1774      C1879   1.484       .  S
C1775      C1776   1.397       .  A
C1775      H1780   1.083       .  S
C1776      C1777   1.405       .  A
C1777      C1778   1.412       .  A
C1777      H1781   1.082       .  S
C1778      C1779   1.413       .  A
C1778      C1794   1.515       .  S
C1779      H1782   1.082       .  S
C1783      C1784   1.419       .  A
C1783      C1788   1.411       .  A
C1783      C1866   1.491       .  S
C1784      C1785   1.413       .  A
C1784      H1789   1.082       .  S
C1785      C1786   1.410       .  A
C1786      C1787   1.403       .  A
C1786      H1790   1.082       .  S
C1787      C1788   1.396       .  A
C1787      C1796   1.483       .  S
C1788      H1791   1.083       .  S
C1792      C1793   1.419       .  A
C1792      C1797   1.409       .  A
C1792      C1859   1.474       .  S
C1793      C1794   1.413       .  A
C1793      H1798   1.083       .  S
C1794      C1795   1.408       .  A
C1795      C1796   1.396       .  A
C1795      H1799   1.075       .  S
C1796      C1797   1.391       .  A
C1797      H1800   1.084       .  S
O1801      C1812   1.294       .  A
O1802      C1813   1.296       .  A
O1803      C1814   1.296       .  A
O1803     Zr2091   2.459       .  S
O1804      C1815   1.295       .  A
O1804     Zr1809   2.451   1_554  S
O1805      C1815   1.289       .  A
O1806      C1814   1.289       .  A
O1807      C1813   1.289       .  A
O1807     Zr1809   2.434       .  S
O1808      C1812   1.292       .  A
Zr1809     O2085   2.459       .  S
O1810     Zr1836   2.340       .  S
O1810     Zr1839   2.346       .  S
O1811     Zr1838   2.346       .  S
C1812      C1969   1.480       .  S
C1813      C1939   1.498       .  S
C1814      C1876   1.473       .  S
C1815      C1856   1.478       .  S
H1816      O1817   0.965       .  S
O1817     Zr2118   2.336       .  S
O1817     Zr1838   2.333       .  S
H1818      O1819   0.965       .  S
O1819     Zr1839   2.335       .  S
O1820      C1843   1.294       .  A
O1820     Zr1836   2.446       .  S
O1821      C1844   1.296       .  A
O1821     Zr1837   2.452       .  S
O1822      C1845   1.293       .  A
O1822     Zr1838   2.443       .  S
O1823      C1846   1.295       .  A
O1823     Zr1839   2.455       .  S
O1824      C1847   1.295       .  A
O1825      C1848   1.290       .  A
O1826      C1849   1.294       .  A
O1826     Zr2122   2.450       .  S
O1827      C1850   1.294       .  A
O1827     Zr1840   2.451       .  S
O1828      C1849   1.290       .  A
O1828     Zr1838   2.432       .  S
O1829      C1850   1.290       .  A
O1829     Zr1839   2.426       .  S
O1830      C1845   1.289       .  A
O1830     Zr2118   2.422       .  S
O1831      C1848   1.292       .  A
O1831     Zr2119   2.432       .  S
O1832      C1847   1.290       .  A
O1832     Zr1837   2.427   1_554  S
O1833      C1846   1.289       .  A
O1833     Zr1836   2.420       .  S
O1834      C1843   1.292       .  A
O1834     Zr1840   2.437       .  S
O1835      C1844   1.290       .  A
Zr1836     O2112   2.422   1_554  S
Zr1836     O2099   2.336   1_554  S
Zr1836     O2124   2.344   1_554  S
Zr1836     O1854   2.339       .  S
Zr1837     O2113   2.432       .  S
Zr1838     O1842   2.345       .  S
Zr1838     O1852   2.333       .  S
Zr1839     O1841   2.348       .  S
Zr1839     O1854   2.333       .  S
Zr1840     O2108   2.450   1_554  S
Zr1840     O1841   2.346       .  S
Zr1840     O2124   2.350   1_554  S
Zr1840     O1854   2.336       .  S
Zr1840     O2134   2.333   1_554  S
O1842     Zr2118   2.344       .  S
O1842     Zr2122   2.350       .  S
C1843      C1949   1.485       .  S
C1844      C1956   1.494       .  S
C1845      C1919   1.470       .  S
C1846      C1909   1.476       .  S
C1847      C1899   1.479       .  S
C1848      C1929   1.482       .  S
C1849      C1889   1.468       .  S
C1850      C1869   1.476       .  S
H1851      O1852   0.965       .  S
O1852     Zr2122   2.333       .  S
H1853      O1854   0.965       .  S
C1855      C1856   1.403       .  A
C1855      C1860   1.396       .  A
C1855      H1862   1.084       .  S
C1856      C1857   1.415       .  A
C1857      C1858   1.402       .  A
C1857     Br1864   1.922       .  S
C1858      C1859   1.401       .  A
C1858      H1863   1.083       .  S
C1859      C1860   1.408       .  A
C1865      C1866   1.411       .  A
C1865      C1870   1.402       .  A
C1865      H1872   1.083       .  S
C1866      C1867   1.413       .  A
C1867      C1868   1.396       .  A
C1867     Br1874   1.918       .  S
C1868      C1869   1.402       .  A
C1868      H1873   1.083       .  S
C1869      C1870   1.408       .  A
C1870     Br1871   1.921       .  S
C1875      C1876   1.401       .  A
C1875      C1880   1.399       .  A
C1875      H1882   1.084       .  S
C1876      C1877   1.407       .  A
C1877      C1878   1.401       .  A
C1877     Br1884   1.915       .  S
C1878      C1879   1.407       .  A
C1878      H1883   1.083       .  S
C1879      C1880   1.412       .  A
C1885      C1886   1.406       .  A
C1885      C1890   1.400       .  A
C1886      C1887   1.413       .  A
C1887      C1888   1.399       .  A
C1887     Br1894   1.920       .  S
C1888      C1889   1.399       .  A
C1888      H1893   1.084       .  S
C1889      C1890   1.407       .  A
C1895      C1896   1.405       .  A
C1895      C1900   1.393       .  A
C1895      H1902   1.084       .  S
C1896      C1897   1.413       .  A
C1897      C1898   1.403       .  A
C1897     Br1904   1.919       .  S
C1898      C1899   1.406       .  A
C1898      H1903   1.084       .  S
C1899      C1900   1.410       .  A
C1900     Br1901   1.918       .  S
C1905      C1906   1.404       .  A
C1905      C1910   1.393       .  A
C1905      H1912   1.084       .  S
C1906      C1907   1.410       .  A
C1907      C1908   1.403       .  A
C1907     Br1914   1.916       .  S
C1908      C1909   1.405       .  A
C1908      H1913   1.083       .  S
C1909      C1910   1.410       .  A
C1910     Br1911   1.920       .  S
C1915      C1916   1.407       .  A
C1915      C1920   1.392       .  A
C1915      H1922   1.084       .  S
C1916      C1917   1.412       .  A
C1917      C1918   1.401       .  A
C1917     Br1924   1.919       .  S
C1918      C1919   1.405       .  A
C1918      H1923   1.084       .  S
C1919      C1920   1.407       .  A
C1920     Br1921   1.923       .  S
C1925      C1926   1.407       .  A
C1925      C1930   1.399       .  A
C1925      H1932   1.082       .  S
C1926      C1927   1.419       .  A
C1927      C1928   1.394       .  A
C1927     Br1934   1.926       .  S
C1928      C1929   1.402       .  A
C1928      H1933   1.084       .  S
C1929      C1930   1.414       .  A
C1930     Br1931   1.921       .  S
C1935      C1936   1.412       .  A
C1935      C1940   1.400       .  A
C1935      H1942   1.078       .  S
C1936      C2219   1.426       .  A
C1937      C2218   1.427       .  A
C1937      C1938   1.400       .  A
C1937     Br1944   1.926       .  S
C1938      C2221   1.404       .  A
C1938      H1943   1.082       .  S
C1939      C2220   1.404       .  A
C1939      C1940   1.417       .  A
C1940     Br1941   1.927       .  S
C1945      C2228   1.408       .  A
C1945      C1950   1.396       .  A
C1945      H1952   1.083       .  S
C1946      C2227   1.408   1_554  A
C1946      C1947   1.415       .  A
C1947      C1948   1.403       .  A
C1947     Br1954   1.921       .  S
C1948      C1949   1.407       .  A
C1948      H1953   1.084       .  S
C1949      C2232   1.412   1_554  A
C1950      C2231   1.412       .  A
C1950     Br1951   1.924       .  S
C1955      C2238   1.403       .  A
C1955      C1960   1.398       .  A
C1955      H1962   1.081       .  S
C1956      C2237   1.403   1_556  A
C1956      C1957   1.418       .  A
C1957      C1958   1.401       .  A
C1957     Br1964   1.925       .  S
C1958      C1959   1.410       .  A
C1958      H1963   1.081       .  S
C1959      C2242   1.421       .  A
C1960      C2241   1.422       .  A
C1960     Br1961   1.926       .  S
C1965      C2248   1.407       .  A
C1965      C1970   1.396       .  A
C1965      H1972   1.084       .  S
C1966      C2247   1.407   1_554  A
C1966      C1967   1.413       .  A
C1966      C1975   1.488       .  S
C1967      C1968   1.403       .  A
C1967     Br1974   1.920       .  S
C1968      C1969   1.407       .  A
C1968      H1973   1.084       .  S
C1969      C2252   1.409   1_554  A
C1970      C2251   1.409       .  A
C1970     Br1971   1.923       .  S
C1975      C1980   1.426       .  A
C1976      C1977   1.401       .  A
C1976      H1981   1.083       .  S
C1977      C1978   1.397       .  A
C1977      C1986   1.502       .  S
C1978      H1982   1.062       .  S
C1979      C1980   1.402   1_556  A
C1980      H1983   1.081       .  S
C1984      C1985   1.431       .  A
C1984      C1989   1.429       .  A
C1984      C2241   1.502       .  S
C1985      C1986   1.399       .  A
C1985      H1990   1.080       .  S
C1986      C1987   1.393       .  A
C1987      C1988   1.394       .  A
C1987      H1991   1.060       .  S
C1988      C1989   1.405       .  A
C1988      C1997   1.503       .  S
C1989      H1992   1.082       .  S
C1993      C1994   1.429       .  A
C1993      C1998   1.426       .  A
C1993      C2228   1.493       .  S
C1994      C1995   1.403       .  A
C1994      H1999   1.083       .  S
C1995      C1996   1.395       .  A
C1995      C2006   1.505       .  S
C1996      C1997   1.398       .  A
C1996      H2000   1.062       .  S
C1997      C1998   1.401       .  A
C1998      H2001   1.079       .  S
C2002      C2003   1.428       .  A
C2002      C2007   1.434       .  A
C2002      C2218   1.514       .  S
C2003      C2004   1.406       .  A
C2003      H2008   1.080       .  S
C2004      C2005   1.397       .  A
C2005      C2006   1.396       .  A
C2005      H2009   1.063       .  S
C2006      C2007   1.399       .  A
C2007      H2010   1.078       .  S
C2011      C2012   1.425       .  A
C2011      C2016   1.427       .  A
C2011      C2208   1.491       .  S
C2012      C2013   1.402       .  A
C2012      H2017   1.083       .  S
C2013      C2014   1.393       .  A
C2013      C2022   1.497       .  S
C2014      C2015   1.393       .  A
C2014      H2018   1.060       .  S
C2015      C2016   1.398       .  A
C2015      C2040   1.498       .  S
C2016      H2019   1.081       .  S
C2020      C2021   1.424       .  A
C2020      C2025   1.423       .  A
C2020      C2198   1.482       .  S
C2021      C2022   1.400       .  A
C2021      H2026   1.083       .  S
C2022      C2023   1.396       .  A
C2023      C2024   1.396       .  A
C2023      H2027   1.063       .  S
C2024      C2025   1.399       .  A
C2024      C2031   1.498       .  S
C2025      H2028   1.081       .  S
C2029      C2030   1.422       .  A
C2029      C2034   1.425       .  A
C2029      C2188   1.482       .  S
C2030      C2031   1.397       .  A
C2030      H2035   1.081       .  S
C2031      C2032   1.398       .  A
C2032      C2033   1.398       .  A
C2032      H2036   1.063       .  S
C2033      C2034   1.402       .  A
C2033      C2042   1.501       .  S
C2034      H2037   1.083       .  S
C2038      C2039   1.423       .  A
C2038      C2043   1.427       .  A
C2038      C2178   1.486       .  S
C2039      C2040   1.398       .  A
C2039      H2044   1.080       .  S
C2040      C2041   1.396       .  A
C2041      C2042   1.394       .  A
C2041      H2045   1.062       .  S
C2042      C2043   1.402       .  A
C2043      H2046   1.083       .  S
C2047      C2048   1.415       .  A
C2047      C2052   1.419       .  A
C2047      C2168   1.483       .  S
C2048      C2049   1.396       .  A
C2048      H2053   1.083       .  S
C2049      C2050   1.395       .  A
C2049      C2058   1.487       .  S
C2050      C2051   1.406       .  A
C2050      H2054   1.076       .  S
C2051      C2052   1.409       .  A
C2051      C2067   1.510       .  S
C2052      H2055   1.083       .  S
C2056      C2057   1.411       .  A
C2056      C2061   1.418       .  A
C2056      C2161   1.484       .  S
C2057      C2058   1.397       .  A
C2057      H2062   1.083       .  S
C2058      C2059   1.405       .  A
C2059      C2060   1.412       .  A
C2059      H2063   1.082       .  S
C2060      C2061   1.413       .  A
C2060      C2076   1.515       .  S
C2061      H2064   1.082       .  S
C2065      C2066   1.419       .  A
C2065      C2070   1.411       .  A
C2065      C2148   1.491       .  S
C2066      C2067   1.413       .  A
C2066      H2071   1.082       .  S
C2067      C2068   1.410       .  A
C2068      C2069   1.403       .  A
C2068      H2072   1.082       .  S
C2069      C2070   1.396       .  A
C2069      C2078   1.483       .  S
C2070      H2073   1.083       .  S
C2074      C2075   1.419       .  A
C2074      C2079   1.409       .  A
C2074      C2141   1.474       .  S
C2075      C2076   1.413       .  A
C2075      H2080   1.083       .  S
C2076      C2077   1.408       .  A
C2077      C2078   1.396       .  A
C2077      H2081   1.075       .  S
C2078      C2079   1.391       .  A
C2079      H2082   1.084       .  S
O2083      C2094   1.294       .  A
O2084      C2095   1.296       .  A
O2085      C2096   1.296       .  A
O2086      C2097   1.295       .  A
O2086     Zr2091   2.451       .  S
O2087      C2097   1.289       .  A
O2088      C2096   1.289       .  A
O2089      C2095   1.289       .  A
O2089     Zr2091   2.434       .  S
O2090      C2094   1.292       .  A
O2092     Zr2118   2.340       .  S
O2092     Zr2121   2.346       .  S
O2093     Zr2120   2.346       .  S
C2094      C2251   1.480       .  S
C2095      C2221   1.498       .  S
C2096      C2158   1.473       .  S
C2097      C2138   1.478       .  S
H2098      O2099   0.965       .  S
O2099     Zr2120   2.333       .  S
H2100      O2101   0.965       .  S
O2101     Zr2121   2.335       .  S
O2102      C2125   1.294       .  A
O2102     Zr2118   2.446       .  S
O2103      C2126   1.296       .  A
O2103     Zr2119   2.452       .  S
O2104      C2127   1.293       .  A
O2104     Zr2120   2.443       .  S
O2105      C2128   1.295       .  A
O2105     Zr2121   2.455       .  S
O2106      C2129   1.294       .  A
O2107      C2130   1.290       .  A
O2108      C2131   1.294       .  A
O2109      C2132   1.294       .  A
O2109     Zr2122   2.451       .  S
O2110      C2131   1.290       .  A
O2110     Zr2120   2.432       .  S
O2111      C2132   1.290       .  A
O2111     Zr2121   2.426       .  S
O2112      C2127   1.289       .  A
O2113      C2130   1.292       .  A
O2114      C2129   1.290       .  A
O2114     Zr2119   2.427       .  S
O2115      C2128   1.289       .  A
O2115     Zr2118   2.420       .  S
O2116      C2125   1.292       .  A
O2116     Zr2122   2.437       .  S
O2117      C2126   1.290       .  A
Zr2118     O2136   2.339       .  S
Zr2120     O2124   2.345       .  S
Zr2120     O2134   2.333       .  S
Zr2121     O2123   2.348       .  S
Zr2121     O2136   2.333       .  S
Zr2122     O2123   2.346       .  S
Zr2122     O2136   2.336       .  S
C2125      C2231   1.485       .  S
C2126      C2238   1.494       .  S
C2127      C2201   1.470       .  S
C2128      C2191   1.476       .  S
C2129      C2181   1.479       .  S
C2130      C2211   1.482       .  S
C2131      C2171   1.468       .  S
C2132      C2151   1.476       .  S
H2133      O2134   0.965       .  S
H2135      O2136   0.965       .  S
C2137      C2138   1.403       .  A
C2137      C2142   1.396       .  A
C2137      H2144   1.084       .  S
C2138      C2139   1.415       .  A
C2139      C2140   1.402       .  A
C2139     Br2146   1.922       .  S
C2140      C2141   1.401       .  A
C2140      H2145   1.083       .  S
C2141      C2142   1.408       .  A
C2147      C2148   1.411       .  A
C2147      C2152   1.402       .  A
C2147      H2154   1.083       .  S
C2148      C2149   1.413       .  A
C2149      C2150   1.396       .  A
C2149     Br2156   1.918       .  S
C2150      C2151   1.402       .  A
C2150      H2155   1.083       .  S
C2151      C2152   1.408       .  A
C2152     Br2153   1.921       .  S
C2157      C2158   1.401       .  A
C2157      C2162   1.399       .  A
C2157      H2164   1.084       .  S
C2158      C2159   1.406       .  A
C2159      C2160   1.401       .  A
C2159     Br2166   1.915       .  S
C2160      C2161   1.407       .  A
C2160      H2165   1.083       .  S
C2161      C2162   1.412       .  A
C2167      C2168   1.406       .  A
C2167      C2172   1.400       .  A
C2168      C2169   1.413       .  A
C2169      C2170   1.399       .  A
C2169     Br2176   1.920       .  S
C2170      C2171   1.399       .  A
C2170      H2175   1.084       .  S
C2171      C2172   1.407       .  A
C2177      C2178   1.405       .  A
C2177      C2182   1.393       .  A
C2177      H2184   1.084       .  S
C2178      C2179   1.413       .  A
C2179      C2180   1.403       .  A
C2179     Br2186   1.919       .  S
C2180      C2181   1.406       .  A
C2180      H2185   1.084       .  S
C2181      C2182   1.410       .  A
C2182     Br2183   1.918       .  S
C2187      C2188   1.404       .  A
C2187      C2192   1.393       .  A
C2187      H2194   1.084       .  S
C2188      C2189   1.410       .  A
C2189      C2190   1.403       .  A
C2189     Br2196   1.916       .  S
C2190      C2191   1.405       .  A
C2190      H2195   1.083       .  S
C2191      C2192   1.410       .  A
C2192     Br2193   1.920       .  S
C2197      C2198   1.407       .  A
C2197      C2202   1.392       .  A
C2197      H2204   1.084       .  S
C2198      C2199   1.412       .  A
C2199      C2200   1.401       .  A
C2199     Br2206   1.919       .  S
C2200      C2201   1.405       .  A
C2200      H2205   1.084       .  S
C2201      C2202   1.407       .  A
C2202     Br2203   1.923       .  S
C2207      C2208   1.407       .  A
C2207      C2212   1.399       .  A
C2207      H2214   1.082       .  S
C2208      C2209   1.419       .  A
C2209      C2210   1.394       .  A
C2209     Br2216   1.926       .  S
C2210      C2211   1.402       .  A
C2210      H2215   1.084       .  S
C2211      C2212   1.414       .  A
C2212     Br2213   1.921       .  S
C2217      C2218   1.412       .  A
C2217      C2222   1.400       .  A
C2217      H2224   1.078       .  S
C2219      C2220   1.400       .  A
C2219     Br2226   1.926   1_556  S
C2220      H2225   1.082   1_556  S
C2221      C2222   1.417       .  A
C2222     Br2223   1.927       .  S
C2227      C2232   1.396       .  A
C2227      H2234   1.083       .  S
C2228      C2229   1.415       .  A
C2229      C2230   1.403       .  A
C2229     Br2236   1.921       .  S
C2230      C2231   1.407       .  A
C2230      H2235   1.084       .  S
C2232     Br2233   1.924       .  S
C2237      C2242   1.398   1_554  A
C2237      H2244   1.081       .  S
C2238      C2239   1.418       .  A
C2239      C2240   1.401       .  A
C2239     Br2246   1.925       .  S
C2240      C2241   1.410       .  A
C2240      H2245   1.081       .  S
C2242     Br2243   1.926   1_556  S
C2247      C2252   1.396       .  A
C2247      H2254   1.084       .  S
C2248      C2249   1.413       .  A
C2249      C2250   1.403       .  A
C2249     Br2256   1.920       .  S
C2250      C2251   1.407       .  A
C2250      H2255   1.084       .  S
C2252     Br2253   1.923       .  S
