geometry optimzed in LAMMPS
_audit_creation_date              2020-12-01 
_audit_creation_method            'lammps2cif' 
_symmetry_space_group_name_H-M    'P1' 
_symmetry_Int_Tables_number       1 
_symmetry_cell_setting            triclinic 
loop_ 
_symmetry_equiv_pos_as_xyz 
  x,y,z 
_cell_length_a                    34.42933294 
_cell_length_b                    34.658529421694304 
_cell_length_c                    36.024712127873805 
_cell_angle_alpha                 90.5376378473595 
_cell_angle_beta                  89.21081797729985 
_cell_angle_gamma                 120.03121034643078 
loop_ 
_atom_site_label 
_atom_site_type_symbol 
_atom_site_fract_x 
_atom_site_fract_y 
_atom_site_fract_z 
_atom_site_charge 
C1          C  0.46135231  0.69904965  0.09665526     0.81000
N2          N  0.46991543  0.70275004  0.13367975    -0.77300
C3          C  0.47038458  0.73641953  0.15380576     0.83400
N4          N  0.46338319  0.76705246  0.13608420    -0.77300
C5          C  0.45456366  0.76316566  0.09904413     0.83500
N6          N  0.45298941  0.72878249  0.07976060    -0.79000
C7          C  0.48720665  0.71702800  0.37408184     0.81000
N8          N  0.48772810  0.75293101  0.38997089    -0.77300
C9          C  0.49112258  0.78648904  0.36862654     0.83400
N10         N  0.49270991  0.78353172  0.33131388    -0.77300
C11         C  0.49059780  0.74732299  0.31456567     0.83500
N12         N  0.48841377  0.71400370  0.33617132    -0.79000
C13         C  0.25156100  0.79059280  0.37442880     0.81000
N14         N  0.25237038  0.79821048  0.33717329    -0.77300
C15         C  0.21612511  0.77111259  0.31589476     0.83400
N16         N  0.17937047  0.73683960  0.33235019    -0.77300
C17         C  0.17857265  0.72872942  0.36911695     0.83500
N18         N  0.21490892  0.75550496  0.38995792    -0.79000
C19         C  0.25257345  0.78868273  0.09603694     0.81000
N20         N  0.21835853  0.75083595  0.08099870    -0.77300
C21         C  0.18319553  0.72180391  0.10260705     0.83400
N22         N  0.18287448  0.73061669  0.13931903    -0.77300
C23         C  0.21736250  0.76748810  0.15504136     0.83500
N24         N  0.25217648  0.79659943  0.13317189    -0.79000
C25         C  0.17386365  0.46504031  0.10186065     0.81000
N26         N  0.17549868  0.46102677  0.13904614    -0.77300
C27         C  0.21372118  0.46770661  0.15524802     0.83400
N28         N  0.25045308  0.47830141  0.13374296    -0.77300
C29         C  0.24924155  0.48276756  0.09637033     0.83500
N30         N  0.21096528  0.47633655  0.08062789    -0.79000
C31         C  0.20856915  0.49133895  0.37304876     0.81000
N32         N  0.20124846  0.48349043  0.33604182    -0.77300
C33         C  0.22883340  0.47484307  0.31467488     0.83400
N34         N  0.26347562  0.47346820  0.33072856    -0.77300
C35         C  0.27122932  0.48150262  0.36746378     0.83500
N36         N  0.24391742  0.49077721  0.38863324    -0.79000
C37         C  0.76514245  0.27908367  0.38050927     0.81000
N38         N  0.73063638  0.24533245  0.39892283    -0.77300
C39         C  0.70104284  0.20770975  0.38098542     0.83400
N40         N  0.70509395  0.20418857  0.34360035    -0.77300
C41         C  0.73915749  0.23843367  0.32434857     0.83500
N42         N  0.76941157  0.27560286  0.34318747    -0.79000
C43         C  0.78581413  0.27901526  0.10841696     0.81000
N44         N  0.78366993  0.27431630  0.14577002    -0.77300
C45         C  0.74747574  0.23994599  0.16263917     0.83400
N46         N  0.71339207  0.20908291  0.14126043    -0.77300
C47         C  0.71539768  0.21330874  0.10350384     0.83500
N48         N  0.75138302  0.24869401  0.08739758    -0.79000
C49         C  0.68787325  0.47195653  0.09943117     0.81000
N50         N  0.72143531  0.47132276  0.07999884    -0.77300
C51         C  0.76088879  0.48276932  0.09641356     0.83400
N52         N  0.76637489  0.49371103  0.13305541    -0.77300
C53         C  0.73243683  0.49329725  0.15331667     0.83500
N54         N  0.69335191  0.48289618  0.13613479    -0.79000
C55         C  0.71404182  0.50054792  0.37324241     0.81000
N56         N  0.75238683  0.50640156  0.38886634    -0.77300
C57         C  0.78871583  0.51512638  0.36735551     0.83400
N58         N  0.78616096  0.51734536  0.32993299    -0.77300
C59         C  0.74794011  0.51108903  0.31370925     0.83500
N60         N  0.71201792  0.50288182  0.33561326    -0.79000
C61         C  0.46400992  0.19612358  0.37343543     0.81000
N62         N  0.47262911  0.23207244  0.39486237    -0.77300
C63         C  0.46866497  0.26610129  0.38037704     0.83400
N64         N  0.45734629  0.26448993  0.34407908    -0.77300
C65         C  0.44886289  0.22875683  0.32256185     0.83500
N66         N  0.45179470  0.19459655  0.33763698    -0.79000
C67         C  0.47233302  0.19766591  0.11314808     0.81000
N68         N  0.47890297  0.23227546  0.09140204    -0.77300
C69         C  0.47249754  0.26514837  0.10552323     0.83400
N70         N  0.46051144  0.26380579  0.14188779    -0.77300
C71         C  0.45403402  0.22930325  0.16380006     0.83500
N72         N  0.45951439  0.19613969  0.14905669    -0.79000
O73         O  0.51396452  0.59694905  0.06813635    -0.74500
O74         O  0.45784453  0.59343682  0.03278719    -0.53400
C75         C  0.48634440  0.60999534  0.05926215     0.79200
O76         O  0.59514589  0.52575528  0.40255300    -0.59100
O77         O  0.58949663  0.46820903  0.43716758    -0.52100
C78         C  0.60623077  0.49642255  0.41016535     0.71200
O79         O  0.52997807  0.60870306  0.40565900    -0.73700
O80         O  0.47845738  0.61164807  0.44432339    -0.54200
C81         C  0.50439782  0.62428501  0.41537379     0.77200
O82         O  0.57886922  0.51329198  0.07358909    -0.58800
O83         O  0.57285575  0.45480190  0.03929860    -0.51900
C84         C  0.58946947  0.48342940  0.06594507     0.73800
Zr85       Zr  0.53238462  0.54054853  0.04767641     2.54700
O86         O  0.60580338  0.60675697  0.03979378    -0.79400
O87         O  0.53553382  0.54746739  0.11512725    -0.92800
Zr88       Zr  0.54912430  0.55442174  0.42881759     2.64700
O89         O  0.62247075  0.62155540  0.43263730    -0.97800
O90         O  0.55206903  0.55761498  0.36129407    -0.79800
O91         O  0.53550037  0.58221533  0.48519402    -0.83200
O92         O  0.57167574  0.53114311  0.48206216    -2.17900
O93         O  0.43710057  0.37803852  0.07392346    -0.66600
O94         O  0.48922070  0.37424802  0.03673155    -0.51100
C95         C  0.46238288  0.36188091  0.06496097     0.72200
O96         O  0.37469619  0.46941506  0.42134287    -0.59500
O97         O  0.39116339  0.53332137  0.45285680    -0.51400
C98         C  0.36718776  0.50118556  0.43068464     0.74000
O99         O  0.44451698  0.38791845  0.40973804    -0.70900
O100        O  0.50051501  0.38675710  0.44212240    -0.49500
C101        C  0.47004115  0.37170866  0.41701340     0.75400
O102        O  0.36511793  0.45475593  0.06903011    -0.66200
O103        O  0.37290064  0.51316820  0.03435292    -0.53400
C104        C  0.35481985  0.48442767  0.06075434     0.73800
Zr105      Zr  0.41450054  0.42815924  0.04750740     2.77500
O106        O  0.34501858  0.35833291  0.03703590    -0.96900
O107        O  0.40039242  0.41985795  0.11412398    -0.77800
Zr108      Zr  0.42942930  0.44557387  0.43341069     2.70100
O109        O  0.35726694  0.37738267  0.43911747    -0.79000
O110        O  0.42418643  0.44784435  0.36624432    -0.98100
Zr111      Zr  0.45610157  0.55085867  0.48879830     2.21500
Zr112      Zr  0.52941256  0.45134215  0.48305936     2.11100
O113        O  0.44978750  0.42053774  0.48693467    -2.46800
O114        O  0.41361363  0.47150756  0.48927439    -0.78800
O115        O  0.49331187  0.46148233  0.04913877    -0.71000
O116        O  0.47054281  0.52434831  0.43182339    -2.32000
O117        O  0.45363756  0.50728664  0.04780040    -2.28200
O118        O  0.50802435  0.47532849  0.42911789    -0.72800
H119        H  0.60351630  0.54179760  0.48001018     0.79200
H120        H  0.46041465  0.53381229  0.41075476     0.80300
H121        H  0.43462686  0.38840666  0.48730972     0.82500
H122        H  0.44476799  0.51780860  0.06941133     0.80200
H123        H  0.52027340  0.54082783  0.35365950     0.43200
H124        H  0.45467165  0.45654972  0.35693500     0.42200
H125        H  0.34933670  0.37585518  0.46579605     0.41800
H126        H  0.34577982  0.33723139  0.05494484     0.39800
H127        H  0.42825287  0.44411326  0.12511622     0.42900
H128        H  0.50517811  0.54093475  0.12301979     0.37700
H129        H  0.59989977  0.62762857  0.02566764     0.43800
H130        H  0.62555541  0.63747319  0.40912857     0.40200
H131        H  0.32107455  0.36374827  0.04662867     0.45100
H132        H  0.55524427  0.57966549  0.12021245     0.43900
H133        H  0.61883688  0.64004398  0.45195835     0.44000
H134        H  0.40543569  0.41628211  0.35866901     0.44400
O135        O  0.06433169  0.61822250  0.42474544    -0.74500
O136        O  0.11658630  0.60526247  0.45144735    -0.53400
C137        C  0.10512298  0.62858079  0.43173607     0.79200
O138        O  0.91653938  0.53383393  0.06534930    -0.59100
O139        O  0.86178831  0.48154127  0.02845200    -0.52100
C140        C  0.87516850  0.50755987  0.05689534     0.71200
O141        O  0.06812674  0.61024803  0.05210988    -0.73700
O142        O  0.11586840  0.59776338  0.01609402    -0.54200
C143        C  0.10774354  0.61999912  0.04077761     0.77200
O144        O  0.91136893  0.53792838  0.42468255    -0.58800
O145        O  0.86131834  0.47770047  0.45869803    -0.51900
C146        C  0.87108425  0.50875948  0.43504027     0.73800
Zr147      Zr  0.98870966  0.55834281  0.44188451     2.54700
O148        O  0.98495821  0.62492203  0.45734048    -0.79400
O149        O  0.99041202  0.56920810  0.37510839    -0.92800
Zr150      Zr  0.99009059  0.55387607  0.03878176     2.64700
O151        O  0.98998557  0.62388261  0.04461839    -0.97800
O152        O  0.99767058  0.54829641  0.10529176    -0.79800
O153        O  0.03419932  0.57112006  0.49485719    -0.83200
O154        O  0.94860641  0.52979409  0.49853996    -2.17900
O155        O  0.91352487  0.39666681  0.40075796    -0.66600
O156        O  0.86221195  0.39543373  0.44230042    -0.51100
C157        C  0.87321120  0.38251045  0.41219412     0.72200
O158        O  0.05438203  0.44635143  0.04479402    -0.59500
O159        O  0.10734380  0.50506010  0.01093314    -0.51400
C160        C  0.09510339  0.47326223  0.03416655     0.74000
O161        O  0.90250874  0.38183598  0.05012439    -0.70900
O162        O  0.85347247  0.39531637  0.01846589    -0.49500
C163        C  0.86257873  0.37305344  0.04159916     0.75400
O164        O  0.06242082  0.46561685  0.39946846    -0.66200
O165        O  0.11673341  0.51866591  0.43613847    -0.53400
C166        C  0.10353191  0.49161139  0.40837369     0.73800
Zr167      Zr  0.98835864  0.44542889  0.42341237     2.77500
O168        O  0.98506095  0.37383618  0.41812044    -0.96900
O169        O  0.98663187  0.45349548  0.35645305    -0.77800
Zr170      Zr  0.97990163  0.43509736  0.03080215     2.70100
O171        O  0.97073049  0.36100905  0.02482794    -0.79000
O172        O  0.98262656  0.43479696  0.09831439    -0.98100
Zr173      Zr  0.07640637  0.53486113  0.48374056     2.21500
Zr174      Zr  0.90462126  0.45104625  0.49012147     2.11100
O175        O  0.94664720  0.41440721  0.47883483    -2.46800
O176        O  0.03320814  0.45624684  0.47599702    -0.78800
O177        O  0.94490063  0.48032585  0.43356335    -0.71000
O178        O  0.02883241  0.51340059  0.03417124    -2.32000
O179        O  0.03228805  0.52365029  0.43008309    -2.28200
O180        O  0.94146646  0.47565639  0.03613458    -0.72800
H181        H  0.92971696  0.54262712  0.50303585     0.79200
H182        H  0.04902241  0.52092786  0.05479284     0.83300
H183        H  0.92686877  0.38276068  0.47524215     0.82500
H184        H  0.05100181  0.53650852  0.40829550     0.80200
H185        H  0.97372866  0.51775821  0.11176230     0.43200
H186        H  0.95591994  0.43628188  0.10677256     0.42200
H187        H  0.98665222  0.36213047  0.00141207     0.41800
H188        H  0.98903773  0.37045212  0.39124742     0.39800
H189        H  0.00825839  0.48532026  0.35156371     0.42900
H190        H  0.97623784  0.58769531  0.37166938     0.37700
H191        H  0.99086204  0.62911119  0.48432298     0.43800
H192        H  0.99648004  0.63216020  0.07112269     0.40200
H193        H  0.01325784  0.37878622  0.42942788     0.45100
H194        H  0.96839563  0.53953405  0.36517035     0.43900
H195        H  0.01739058  0.64595828  0.03121431     0.44000
H196        H  0.97559742  0.40420311  0.10460883     0.44400
O197        O  0.50903279  0.90401877  0.42414646    -0.74500
O198        O  0.44374201  0.85904350  0.45560393    -0.53400
C199        C  0.47602015  0.86558502  0.43352367     0.79200
O200        O  0.59573423  0.06380620  0.07462057    -0.59100
O201        O  0.60624707  0.11884844  0.03452229    -0.52100
C202        C  0.61533595  0.10496810  0.06445368     0.71200
O203        O  0.50726942  0.91512224  0.07293121    -0.73700
O204        O  0.44710652  0.86672658  0.03807911    -0.54200
C205        C  0.47483131  0.87600897  0.06502421     0.77200
O206        O  0.59127727  0.05424233  0.41065894    -0.58800
O207        O  0.59649881  0.11029016  0.44776751    -0.51900
C208        C  0.60834310  0.09569177  0.41937535     0.73800
Zr209      Zr  0.53584772  0.98263143  0.43762888     2.54700
O210        O  0.60402660  0.97899941  0.44596559    -0.79400
O211        O  0.53676660  0.97314459  0.37051887    -0.92800
Zr212      Zr  0.54088975  0.99068947  0.04914662     2.64700
O213        O  0.60695157  0.98231305  0.04461101    -0.97800
O214        O  0.53995176  0.98738323  0.11662521    -0.79800
O215        O  0.50520113  0.94019640  0.49228507    -0.83200
O216        O  0.56206099  0.02488295  0.49326760    -2.17900
O217        O  0.46028847  0.08219127  0.42102211    -0.66600
O218        O  0.52169797  0.12709710  0.45584524    -0.51100
C219        C  0.49150044  0.12073544  0.43204893     0.72200
O220        O  0.37344608  0.93701312  0.06542575    -0.59500
O221        O  0.37003269  0.87901941  0.03217007    -0.51400
C222        C  0.35557779  0.89515707  0.05765725     0.74000
O223        O  0.46616713  0.08601421  0.05901377    -0.70900
O224        O  0.53049607  0.13171634  0.02670269    -0.49500
C225        C  0.49914138  0.12463873  0.05011043     0.75400
O226        O  0.37337083  0.93416986  0.40911574    -0.66200
O227        O  0.36641483  0.87593395  0.44346977    -0.53400
C228        C  0.35499907  0.89240287  0.41644584     0.73800
Zr229      Zr  0.43296954  0.00369956  0.43440717     2.77500
O230        O  0.36641934  0.01103692  0.43060112    -0.96900
O231        O  0.44639673  0.01250955  0.36767666    -0.77800
Zr232      Zr  0.43589479  0.00787651  0.04241857     2.70100
O233        O  0.37184064  0.01837462  0.03383290    -0.79000
O234        O  0.43183373  0.01097475  0.10982484    -0.98100
Zr235      Zr  0.42588270  0.90813885  0.49022323     2.21500
Zr236      Zr  0.53589943  0.07689262  0.49244554     2.11100
O237        O  0.45640993  0.04504318  0.49029561    -2.46800
O238        O  0.40061705  0.96088240  0.48925729    -0.78800
O239        O  0.51182532  0.03580969  0.43603679    -0.71000
O240        O  0.46152302  0.95666507  0.04667175    -2.32000
O241        O  0.45681463  0.95023327  0.43472718    -2.28200
O242        O  0.51525666  0.04226601  0.04591306    -0.72800
H243        H  0.59444480  0.04004214  0.49385342     0.79200
H244        H  0.44857700  0.93901148  0.06872043     0.80300
H245        H  0.44764600  0.06750433  0.48999929     0.82500
H246        H  0.44643727  0.93143983  0.41301397     0.80200
H247        H  0.50830689  0.97674669  0.12375879     0.43200
H248        H  0.46272844  0.03291653  0.11748500     0.42200
H249        H  0.34810828  0.98951814  0.02385716     0.41800
H250        H  0.37372822  0.03817095  0.44516446     0.39800
H251        H  0.47388182  0.01059647  0.36359060     0.42900
H252        H  0.50656825  0.94818180  0.36439707     0.37700
H253        H  0.59540977  0.95460258  0.46403644     0.43800
H254        H  0.61315898  0.97808958  0.07055807     0.40200
H255        H  0.36608636  0.01956265  0.40449630     0.45100
H256        H  0.55710597  0.96102946  0.36625129     0.43900
H257        H  0.59606851  0.95282294  0.03274371     0.44000
H258        H  0.41420809  0.02595543  0.11480935     0.44400
C259        C  0.47760606  0.30125340  0.08087271    -0.15700
C260        C  0.45984373  0.32695077  0.08967844    -0.30800
H261        H  0.49423559  0.30520072  0.05417441     0.13400
H262        H  0.44129962  0.32127322  0.11563031     0.13900
C263        C  0.50016491  0.16390835  0.06710230    -0.15700
C264        C  0.47616252  0.16026465  0.09786230    -0.30800
H265        H  0.52021793  0.19609828  0.05379541     0.13400
H266        H  0.45844491  0.12863647  0.11242881     0.13900
C267        C  0.45717140  0.26862863  0.26258149    -0.12600
C268        C  0.44119919  0.22851386  0.28220014     0.09600
C269        C  0.42298085  0.18827227  0.26223527    -0.12600
C270        C  0.42452254  0.18841749  0.22352095    -0.12600
C271        C  0.44415247  0.22879507  0.20392575     0.09600
C272        C  0.45862114  0.26875722  0.22370221    -0.12600
H273        H  0.47130407  0.30016233  0.27720183     0.13600
H274        H  0.40958857  0.15673943  0.27656686     0.13600
H275        H  0.41221258  0.15700562  0.20896511     0.13600
H276        H  0.47376424  0.30035710  0.20928366     0.13600
C277        C  0.47699201  0.30468597  0.40401700    -0.15700
C278        C  0.46338586  0.33333680  0.39399329    -0.30800
H279        H  0.49308697  0.30867640  0.43062180     0.13400
H280        H  0.44498794  0.32759051  0.36833830     0.13900
C281        C  0.46666883  0.15791844  0.38811612    -0.15700
C282        C  0.49158506  0.16058389  0.41746977    -0.30800
H283        H  0.44835480  0.12654968  0.37317577     0.13400
H284        H  0.51199982  0.19241413  0.43124773     0.13900
C285        C  0.67533822  0.49231269  0.39756947    -0.15700
C286        C  0.64095315  0.49655356  0.38526886    -0.30800
H287        H  0.67683918  0.48601012  0.42685580     0.13400
H288        H  0.64142283  0.50637794  0.35662653     0.13900
C289        C  0.83215351  0.50979846  0.41927845    -0.15700
C290        C  0.83063395  0.52098237  0.38392961    -0.30800
H291        H  0.80187129  0.49609160  0.43630391     0.13400
H292        H  0.85989219  0.53174657  0.36600873     0.13900
C293        C  0.64742201  0.46370112  0.07939010    -0.15700
C294        C  0.62403256  0.48346510  0.08966103    -0.30800
H295        H  0.64026659  0.44580293  0.05315165     0.13400
H296        H  0.63349985  0.50401134  0.11456757     0.13900
C297        C  0.70155377  0.49822378  0.21604751    -0.12600
C298        C  0.73745633  0.50215954  0.19400654     0.09600
C299        C  0.77772295  0.51239286  0.21157392    -0.12600
C300        C  0.78144972  0.51672302  0.25017489    -0.12600
C301        C  0.74497638  0.51081652  0.27243708     0.09600
C302        C  0.70525512  0.50245528  0.25479798    -0.12600
H303        H  0.67010999  0.49067201  0.20349787     0.13600
H304        H  0.80623604  0.51604979  0.19559515     0.13600
H305        H  0.81273350  0.52357629  0.26259615     0.13600
H306        H  0.67657903  0.49806509  0.27096047     0.13600
C307        C  0.79673061  0.48294402  0.07363299    -0.15700
C308        C  0.84050352  0.50708767  0.08190822    -0.30800
H309        H  0.78652108  0.46423294  0.04778493     0.13400
H310        H  0.85101515  0.52732070  0.10697386     0.13900
C311        C  0.65022520  0.13817502  0.08964261    -0.15700
C312        C  0.67921539  0.18037196  0.07924631    -0.30800
H313        H  0.65289500  0.12719581  0.11716449     0.13400
H314        H  0.67813631  0.19063792  0.05104926     0.13900
C315        C  0.82575361  0.31693390  0.09128784    -0.15700
C316        C  0.82365242  0.33406995  0.05864665    -0.30800
H317        H  0.85682646  0.33261942  0.10680609     0.13400
H318        H  0.79162258  0.32033845  0.04467026     0.13900
C319        C  0.64355477  0.12903714  0.39455778    -0.15700
C320        C  0.66442524  0.17260530  0.40311230    -0.30800
H321        H  0.65271324  0.11782372  0.36939798     0.13400
H322        H  0.65645000  0.18331806  0.42914791     0.13900
C323        C  0.77851621  0.27118393  0.26375838    -0.12600
C324        C  0.74200242  0.23675069  0.28301217     0.09600
C325        C  0.70746929  0.20232207  0.26219436    -0.12600
C326        C  0.70911291  0.20285974  0.22316966    -0.12600
C327        C  0.74547735  0.23769260  0.20403110     0.09600
C328        C  0.78022063  0.27165268  0.22497217    -0.12600
H329        H  0.80576793  0.29829666  0.27863757     0.13600
H330        H  0.67869185  0.17533961  0.27601721     0.13600
H331        H  0.68171689  0.17622208  0.20803738     0.13600
H332        H  0.80880906  0.29917876  0.21143673     0.13600
C333        C  0.79767855  0.31818578  0.40212020    -0.15700
C334        C  0.83791624  0.34824665  0.38854417    -0.30800
H335        H  0.78972388  0.32008449  0.43114767     0.13400
H336        H  0.84697914  0.34481144  0.36018132     0.13900
C337        C  0.32795688  0.50111140  0.41529881    -0.15700
C338        C  0.30926399  0.47996829  0.38361435    -0.30800
H339        H  0.31551100  0.52069600  0.42942932     0.13400
H340        H  0.32368876  0.46305210  0.36806887     0.13900
C341        C  0.17783937  0.49925927  0.39654892    -0.15700
C342        C  0.13713965  0.48918127  0.38445741    -0.30800
H343        H  0.18753272  0.51066881  0.42491241     0.13400
H344        H  0.12651385  0.47497790  0.35691324     0.13900
C345        C  0.18272178  0.46712457  0.21849524    -0.12600
C346        C  0.21587428  0.46596756  0.19606501     0.09600
C347        C  0.25194113  0.46524400  0.21304475    -0.12600
C348        C  0.25536056  0.46678126  0.25163644    -0.12600
C349        C  0.22297838  0.46943001  0.27404775     0.09600
C350        C  0.18633010  0.46904101  0.25707151    -0.12600
H351        H  0.15453951  0.46783079  0.20625094     0.13600
H352        H  0.27786869  0.46409409  0.19652869     0.13600
H353        H  0.28403491  0.46697320  0.26381176     0.13600
H354        H  0.16078409  0.47097990  0.27350774     0.13600
C355        C  0.28827645  0.49239261  0.07252404    -0.15700
C356        C  0.32022654  0.48466761  0.08483540    -0.30800
H357        H  0.28843034  0.50133150  0.04366202     0.13400
H358        H  0.31772009  0.47229144  0.11289571     0.13900
C359        C  0.13251925  0.45923989  0.08524833    -0.15700
C360        C  0.13173873  0.46894532  0.04955856    -0.30800
H361        H  0.10365735  0.45055809  0.10318059     0.13400
H362        H  0.16159067  0.48028495  0.03226878     0.13900
C363        C  0.14434975  0.68134465  0.08696089    -0.15700
C364        C  0.14712160  0.66029632  0.05630573    -0.30800
H365        H  0.11276607  0.66741791  0.10222209     0.13400
H366        H  0.17936068  0.67270106  0.04234595     0.13900
C367        C  0.29007016  0.82041294  0.07185114    -0.15700
C368        C  0.31664604  0.86370148  0.08085536    -0.30800
H369        H  0.29516037  0.80801315  0.04549425     0.13400
H370        H  0.30982463  0.87655863  0.10624568     0.13900
C371        C  0.13901058  0.68971892  0.38559692    -0.15700
C372        C  0.14239653  0.67033800  0.41653498    -0.30800
H373        H  0.10761217  0.67464690  0.37054879     0.13400
H374        H  0.17480710  0.68374969  0.42981928     0.13900
C375        C  0.17688066  0.75000659  0.25489470    -0.12600
C376        C  0.21663723  0.77605526  0.27476107     0.09600
C377        C  0.25636411  0.80341705  0.25459717    -0.12600
C378        C  0.25657242  0.80253629  0.21550062    -0.12600
C379        C  0.21712989  0.77408487  0.19593506     0.09600
C380        C  0.17715533  0.74892967  0.21620810    -0.12600
H381        H  0.14541097  0.72908008  0.26924353     0.13600
H382        H  0.28755433  0.82410423  0.26895116     0.13600
H383        H  0.28792519  0.82259167  0.20070464     0.13600
H384        H  0.14596549  0.72726733  0.20218716     0.13600
C385        C  0.31892405  0.86216842  0.39086820    -0.15700
C386        C  0.28968375  0.81941802  0.39881716    -0.30800
H387        H  0.31512063  0.87625836  0.36526543     0.13400
H388        H  0.29160944  0.80597822  0.42541738     0.13900
C389        C  0.50446502  0.65790102  0.39009675    -0.15700
C390        C  0.48519963  0.68221197  0.39888616    -0.30800
H391        H  0.52167358  0.66331947  0.36348668     0.13400
H392        H  0.47048741  0.67904074  0.42636521     0.13900
C393        C  0.49390228  0.82659072  0.38521929    -0.15700
C394        C  0.47476455  0.82562589  0.41804006    -0.30800
H395        H  0.50980435  0.85708296  0.36899669     0.13400
H396        H  0.45561579  0.79430111  0.43282806     0.13900
C397        C  0.46138480  0.66362630  0.07404301    -0.15700
C398        C  0.48675668  0.64561203  0.08222838    -0.30800
H399        H  0.44182228  0.65396942  0.04875830     0.13400
H400        H  0.50809642  0.65705372  0.10651025     0.13900
C401        C  0.47040205  0.83985884  0.08923483    -0.15700
C402        C  0.44986987  0.79716341  0.07837280    -0.30800
H403        H  0.48874691  0.84932504  0.11516072     0.13400
H404        H  0.43438969  0.78809118  0.05120698     0.13900
C405        C  0.48287487  0.77661605  0.21460157    -0.12600
C406        C  0.47783301  0.73942584  0.19471231     0.09600
C407        C  0.47887094  0.70499062  0.21451899    -0.12600
C408        C  0.48387568  0.70744025  0.25334078    -0.12600
C409        C  0.48823881  0.74452210  0.27317098     0.09600
C410        C  0.48819137  0.77921645  0.25304944    -0.12600
H411        H  0.48241396  0.80384314  0.20051130     0.13600
H412        H  0.47502525  0.67573696  0.20012438     0.13600
H413        H  0.48367881  0.68009890  0.26780703     0.13600
H414        H  0.49150527  0.80848263  0.26703658     0.13600
C415        C  0.49574429  0.72064169  0.60224804     0.81000
N416        N  0.50359876  0.71968698  0.63913435    -0.77300
C417        C  0.50658190  0.75231020  0.66228702     0.83400
N418        N  0.50212554  0.78611146  0.64811923    -0.77300
C419        C  0.49333316  0.78697300  0.61164064     0.83500
N420        N  0.48987065  0.75394816  0.58876107    -0.79000
C421        C  0.48835570  0.70993622  0.88085881     0.81000
N422        N  0.49079340  0.74679565  0.89705785    -0.77300
C423        C  0.50235211  0.78383668  0.87651855     0.83400
N424        N  0.51061208  0.78348809  0.83976527    -0.77300
C425        C  0.50712416  0.74681531  0.82272887     0.83500
N426        N  0.49620274  0.70991711  0.84349534    -0.79000
C427        C  0.25601479  0.79574869  0.87868758     0.81000
N428        N  0.25591131  0.80562161  0.84199848    -0.77300
C429        C  0.21854885  0.78087669  0.82116559     0.83400
N430        N  0.18171781  0.74686978  0.83740442    -0.77300
C431        C  0.18180141  0.73626696  0.87329145     0.83500
N432        N  0.21916527  0.76042231  0.89389774    -0.79000
C433        C  0.24988520  0.78447371  0.60222803     0.81000
N434        N  0.21656423  0.74459909  0.58961781    -0.77300
C435        C  0.18274083  0.71666490  0.61278957     0.83400
N436        N  0.18273966  0.72865481  0.64868472    -0.77300
C437        C  0.21650230  0.76784771  0.66197803     0.83500
N438        N  0.25000894  0.79576551  0.63857689    -0.79000
C439        C  0.18150796  0.44787739  0.59908796     0.81000
N440        N  0.17629761  0.44064173  0.63617296    -0.77300
C441        C  0.20862195  0.43981978  0.65643621     0.83400
N442        N  0.24635159  0.44550077  0.63913489    -0.77300
C443        C  0.25280838  0.45359033  0.60215919     0.83500
N444        N  0.22028243  0.45508051  0.58183216    -0.79000
C445        C  0.19085546  0.46748195  0.87285080     0.81000
N446        N  0.18336155  0.45791030  0.83597296    -0.77300
C447        C  0.20899473  0.44520010  0.81610050     0.83400
N448        N  0.24189995  0.44191250  0.83342850    -0.77300
C449        C  0.24994274  0.45168214  0.86986888     0.83500
N450        N  0.22454467  0.46479436  0.88958206    -0.79000
C451        C  0.78687469  0.26802304  0.86262581     0.81000
N452        N  0.75188300  0.24108032  0.88519870    -0.77300
C453        C  0.71852537  0.20125432  0.87247347     0.83400
N454        N  0.71965875  0.18904173  0.83646288    -0.77300
C455        C  0.75460970  0.21619562  0.81369612     0.83500
N456        N  0.78812441  0.25519920  0.82728883    -0.79000
C457        C  0.79799504  0.25368870  0.60171609     0.81000
N458        N  0.79734244  0.24399341  0.63819481    -0.77300
C459        C  0.76029854  0.20956622  0.65419710     0.83400
N460        N  0.72372955  0.18409417  0.63290153    -0.77300
C461        C  0.72407181  0.19292981  0.59604197     0.83500
N462        N  0.76107997  0.22818567  0.58074308    -0.79000
C463        C  0.71933184  0.52415568  0.60248588     0.81000
N464        N  0.74511008  0.51155274  0.58262775    -0.77300
C465        C  0.77804118  0.50753514  0.59960833     0.83400
N466        N  0.78418560  0.51514041  0.63686174    -0.77300
C467        C  0.75822521  0.52741538  0.65684666     0.83500
N468        N  0.72634492  0.53223289  0.63925898    -0.79000
C469        C  0.70005591  0.51015707  0.86849129     0.81000
N470        N  0.72835703  0.50374555  0.89015649    -0.77300
C471        C  0.76621416  0.50666892  0.87534456     0.83400
N472        N  0.77515154  0.51504194  0.83843338    -0.77300
C473        C  0.74677749  0.52106778  0.81655171     0.83500
N474        N  0.70955594  0.51900890  0.83191400    -0.79000
C475        C  0.47733813  0.19969735  0.86583434     0.81000
N476        N  0.48493816  0.23397613  0.88895894    -0.77300
C477        C  0.48119504  0.26883654  0.87641579     0.83400
N478        N  0.47099440  0.26990511  0.84012722    -0.77300
C479        C  0.46357630  0.23593300  0.81671354     0.83500
N480        N  0.46619901  0.20067222  0.82999856    -0.79000
C481        C  0.46549578  0.20184302  0.60557666     0.81000
N482        N  0.47718059  0.23809295  0.58397858    -0.77300
C483        C  0.47838035  0.27501175  0.59871055     0.83400
N484        N  0.46908919  0.27581605  0.63571879    -0.77300
C485        C  0.45772821  0.23951059  0.65742265     0.83500
N486        N  0.45557496  0.20279019  0.64179319    -0.79000
O487        O  0.53909231  0.61282127  0.56428413    -0.74500
O488        O  0.48177038  0.61234372  0.53266838    -0.53400
C489        C  0.51175892  0.62732112  0.55816909     0.79200
O490        O  0.59067550  0.51596671  0.92213982    -0.59100
O491        O  0.58006290  0.45701006  0.95754456    -0.52100
C492        C  0.60122348  0.48692953  0.93277226     0.71200
O493        O  0.51604193  0.59196677  0.91311325    -0.73700
O494        O  0.45950027  0.59190547  0.94711727    -0.54200
C495        C  0.48909866  0.60669804  0.92058619     0.77200
O496        O  0.61108702  0.53334880  0.55172251    -0.58800
O497        O  0.59599344  0.47096583  0.51843695    -0.51900
C498        C  0.61957605  0.50244390  0.54142817     0.73800
Zr499      Zr  0.55540492  0.55626093  0.53873023     2.54700
O500        O  0.62618853  0.62614119  0.53351891    -0.79400
O501        O  0.56185642  0.55290627  0.60570117    -0.92800
Zr502      Zr  0.53479771  0.53796284  0.93782624     2.64700
O503        O  0.60430537  0.60948587  0.93936384    -0.97800
O504        O  0.53780647  0.53362230  0.87047007    -0.79800
O505        O  0.51510661  0.56458705  0.99195095    -0.83200
O506        O  0.55443528  0.51636402  0.99376187    -2.17900
O507        O  0.45603487  0.39592857  0.56692133    -0.66600
O508        O  0.50695456  0.39100296  0.52873238    -0.51100
C509        C  0.48066783  0.37913737  0.55756255     0.72200
O510        O  0.35801890  0.44524364  0.92342652    -0.59500
O511        O  0.36885608  0.50661668  0.95611994    -0.51400
C512        C  0.34711374  0.47451973  0.93329824     0.74000
O513        O  0.44073420  0.37686025  0.91350370    -0.70900
O514        O  0.49418960  0.37614184  0.94982019    -0.49500
C515        C  0.46766774  0.36272368  0.92172839     0.75400
O516        O  0.37320498  0.46394328  0.55419045    -0.66200
O517        O  0.38851308  0.52885988  0.52603437    -0.53400
C518        C  0.36354012  0.49443884  0.54614930     0.73800
Zr519      Zr  0.43441762  0.44784753  0.54282507     2.77500
O520        O  0.36604218  0.37530662  0.54638847    -0.96900
O521        O  0.43447339  0.45986646  0.60949444    -0.77800
Zr522      Zr  0.41600705  0.42665048  0.93844566     2.70100
O523        O  0.34856029  0.35372069  0.94272655    -0.79000
O524        O  0.40958261  0.42612303  0.87123918    -0.98100
Zr525      Zr  0.43539801  0.53043706  0.99175262     2.21500
Zr526      Zr  0.51379426  0.43660162  0.99450681     2.11100
O527        O  0.43397131  0.40193590  0.99350541    -2.46800
O528        O  0.39453756  0.45083052  0.99262462    -0.78800
O529        O  0.51332100  0.47721236  0.53967484    -0.71000
O530        O  0.45549855  0.50551582  0.93660616    -2.32000
O531        O  0.47639048  0.52664284  0.54325417    -2.28200
O532        O  0.49519703  0.45905434  0.93830529    -0.72800
H533        H  0.58636584  0.52781050  0.99456659     0.79200
H534        H  0.44636635  0.51462913  0.91471249     0.80300
H535        H  0.42008696  0.36993417  0.99372312     0.82500
H536        H  0.46828181  0.53690957  0.56545734     0.80200
H537        H  0.53031667  0.50255777  0.86526539     0.43200
H538        H  0.44011249  0.43534061  0.86171929     0.42200
H539        H  0.32911274  0.35784338  0.96090935     0.41800
H540        H  0.37444817  0.35363040  0.53667940     0.39800
H541        H  0.46309091  0.46288536  0.61800083     0.42900
H542        H  0.53400299  0.55067146  0.61601663     0.37700
H543        H  0.64760880  0.61774374  0.52289252     0.43800
H544        H  0.62319764  0.60552898  0.95768053     0.40200
H545        H  0.36084692  0.36885006  0.57328956     0.45100
H546        H  0.58589124  0.58316344  0.61272179     0.43900
H547        H  0.61900523  0.61132162  0.91510983     0.44000
H548        H  0.39144490  0.39419407  0.86451216     0.44400
O549        O  0.06688904  0.61961939  0.91730739    -0.74500
O550        O  0.11578713  0.60101951  0.94233614    -0.53400
C551        C  0.10680386  0.62717552  0.92426644     0.79200
O552        O  0.91978068  0.52032633  0.57542678    -0.59100
O553        O  0.86485571  0.46867121  0.53817009    -0.52100
C554        C  0.87842283  0.49531064  0.56637227     0.71200
O555        O  0.07135524  0.59949048  0.56534948    -0.73700
O556        O  0.12138502  0.59415638  0.52651129    -0.54200
C557        C  0.11151013  0.61261799  0.55319138     0.77200
O558        O  0.91499743  0.54107392  0.90514750    -0.58800
O559        O  0.85972870  0.48589343  0.94026802    -0.51900
C560        C  0.87359711  0.51446226  0.91360903     0.73800
Zr561      Zr  0.98870142  0.56106302  0.92847781     2.54700
O562        O  0.98524201  0.62899214  0.93680239    -0.79400
O563        O  0.99778776  0.57316601  0.86163894    -0.92800
Zr564      Zr  0.99432255  0.54091189  0.55117393     2.64700
O565        O  0.99642293  0.61011906  0.56811320    -0.97800
O566        O  0.99805592  0.52301384  0.61577129    -0.79800
O567        O  0.03196592  0.57616334  0.98254570    -0.83200
O568        O  0.94578918  0.53994518  0.98466287    -2.17900
O569        O  0.89898906  0.38529843  0.90671449    -0.66600
O570        O  0.85097619  0.39681105  0.94315621    -0.51100
C571        C  0.85937059  0.37490683  0.91849006     0.72200
O572        O  0.06932774  0.44333835  0.54261882    -0.59500
O573        O  0.12042683  0.50759878  0.51349682    -0.51400
C574        C  0.10996297  0.47335726  0.53368098     0.74000
O575        O  0.91467064  0.36742993  0.54915534    -0.70900
O576        O  0.86293736  0.38127356  0.52264058    -0.49500
C577        C  0.87386219  0.35749940  0.54225562     0.75400
O578        O  0.04960303  0.45475187  0.89777651    -0.66200
O579        O  0.10610629  0.51002523  0.93140127    -0.53400
C580        C  0.09119096  0.48011516  0.90561757     0.73800
Zr581      Zr  0.97699911  0.44142622  0.91989138     2.77500
O582        O  0.97507829  0.37060574  0.91233791    -0.96900
O583        O  0.97268027  0.44925790  0.85317378    -0.77800
Zr584      Zr  0.99155690  0.42675766  0.53202751     2.70100
O585        O  0.98815946  0.35584903  0.51996133    -0.79000
O586        O  0.99216171  0.41777854  0.59894076    -0.98100
Zr587      Zr  0.06897415  0.53419202  0.97651534     2.21500
Zr588      Zr  0.89850734  0.46090649  0.98119568     2.11100
O589        O  0.93621082  0.41922796  0.97659936    -2.46800
O590        O  0.02110155  0.45558597  0.97391315    -0.78800
O591        O  0.93950525  0.48277344  0.92424706    -0.71000
O592        O  0.03691639  0.50521497  0.54086005    -2.32000
O593        O  0.02626444  0.51985847  0.92154250    -2.28200
O594        O  0.94910325  0.46256965  0.54369844    -0.72800
H595        H  0.92809130  0.55446664  0.98667279     0.79200
H596        H  0.05753218  0.51181597  0.56105034     0.83300
H597        H  0.91532116  0.38756079  0.97604891     0.82500
H598        H  0.04543658  0.52981132  0.89981325     0.80200
H599        H  0.03018658  0.53358932  0.62006194     0.43200
H600        H  0.00014626  0.39424654  0.60202235     0.42200
H601        H  0.97292529  0.34579256  0.49577119     0.41800
H602        H  0.95369332  0.35104417  0.93163510     0.39800
H603        H  0.98220650  0.48107806  0.84959123     0.42900
H604        H  0.02384243  0.56978662  0.85468089     0.37700
H605        H  0.00611811  0.64480903  0.95739797     0.43800
H606        H  0.96879183  0.60750470  0.55759207     0.40200
H607        H  0.95941423  0.35832754  0.88857930     0.45100
H608        H  0.00868263  0.60537210  0.85857582     0.43900
H609        H  0.99129393  0.60812153  0.59531816     0.44000
H610        H  0.01881635  0.44541155  0.60764370     0.44400
O611        O  0.51903404  0.90477720  0.92799495    -0.74500
O612        O  0.45330735  0.86084590  0.95922176    -0.53400
C613        C  0.48572888  0.86645890  0.93766135     0.79200
O614        O  0.59189720  0.05313733  0.56969603    -0.59100
O615        O  0.60035954  0.11078199  0.53375672    -0.52100
C616        C  0.61220899  0.09458669  0.56054826     0.71200
O617        O  0.50280151  0.90304316  0.56089701    -0.73700
O618        O  0.43961853  0.85828610  0.52776359    -0.54200
C619        C  0.47048585  0.86452433  0.55083429     0.77200
O620        O  0.60353672  0.05554368  0.91303139    -0.58800
O621        O  0.60843488  0.11474344  0.94551210    -0.51900
C622        C  0.62091159  0.09764408  0.91925972     0.73800
Zr623      Zr  0.54647753  0.98460355  0.93977618     2.54700
O624        O  0.61413782  0.98043463  0.94933326    -0.79400
O625        O  0.54888831  0.97450849  0.87291287    -0.92800
Zr626      Zr  0.53017319  0.98192547  0.54793655     2.64700
O627        O  0.59512244  0.97173330  0.55047373    -0.97800
O628        O  0.52013611  0.97640201  0.61510387    -0.79800
O629        O  0.51580284  0.94445337  0.99549471    -0.83200
O630        O  0.57299759  0.03099902  0.99354252    -2.17900
O631        O  0.47100569  0.08361104  0.91496763    -0.66600
O632        O  0.53149501  0.13002640  0.95014121    -0.51100
C633        C  0.50192808  0.12264501  0.92542301     0.72200
O634        O  0.36537927  0.93197082  0.56696423    -0.59500
O635        O  0.36155480  0.87452359  0.53249756    -0.51400
C636        C  0.34774027  0.89031735  0.55880983     0.74000
O637        O  0.45566969  0.08279017  0.55877348    -0.70900
O638        O  0.52292439  0.12711567  0.52975529    -0.49500
C639        C  0.48992844  0.12115859  0.55058495     0.75400
O640        O  0.38378762  0.93561284  0.90953492    -0.66200
O641        O  0.37550320  0.87824294  0.94592276    -0.53400
C642        C  0.36427546  0.89424132  0.91835521     0.73800
Zr643      Zr  0.44390466  0.00585420  0.93240598     2.77500
O644        O  0.37676697  0.01231959  0.93135812    -0.96900
O645        O  0.45198907  0.00835058  0.86504356    -0.77800
Zr646      Zr  0.42722964  0.00320780  0.54520380     2.70100
O647        O  0.36061763  0.01063171  0.54286245    -0.79000
O648        O  0.42668363  0.00712788  0.61271288    -0.98100
Zr649      Zr  0.43619946  0.91172543  0.99200991     2.21500
Zr650      Zr  0.54603481  0.08236936  0.98963737     2.11100
O651        O  0.46647123  0.04926778  0.98719737    -2.46800
O652        O  0.41070739  0.96397807  0.98754908    -0.78800
O653        O  0.52274139  0.03801751  0.93467822    -0.71000
O654        O  0.45120486  0.94982751  0.54661410    -2.32000
O655        O  0.46760210  0.95222814  0.93582762    -2.28200
O656        O  0.50641714  0.03553042  0.54841691    -0.72800
H657        H  0.60536097  0.04647096  0.99445836     0.79200
H658        H  0.43878565  0.93069342  0.56798846     0.80300
H659        H  0.45766940  0.07158354  0.98608502     0.82500
H660        H  0.45733817  0.93266794  0.91466787     0.80200
H661        H  0.50265686  0.99135350  0.62082163     0.43200
H662        H  0.45629164  0.03284059  0.61913469     0.42200
H663        H  0.34953964  0.00188926  0.51720891     0.41800
H664        H  0.37877315  0.02968785  0.95393989     0.39800
H665        H  0.48245046  0.01299377  0.86042382     0.42900
H666        H  0.51749743  0.95327315  0.86599516     0.37700
H667        H  0.60874628  0.95304932  0.93610603     0.43800
H668        H  0.61997132  0.99886727  0.53897534     0.40200
H669        H  0.38169257  0.03277199  0.91053339     0.45100
H670        H  0.56478959  0.95750111  0.86964611     0.43900
H671        H  0.60265742  0.97447707  0.57715246     0.44000
H672        H  0.40501879  0.01722895  0.61866987     0.44400
C673        C  0.48852054  0.31309145  0.57378634    -0.15700
C674        C  0.47716690  0.34387844  0.58293324    -0.30800
H675        H  0.50221109  0.31372736  0.54630088     0.13400
H676        H  0.46099604  0.34115776  0.60968171     0.13900
C677        C  0.49158391  0.16198727  0.56483055    -0.15700
C678        C  0.46286362  0.16095368  0.59070552    -0.30800
H679        H  0.51756778  0.19390588  0.55405411     0.13400
H680        H  0.43878189  0.12947528  0.60341806     0.13900
C681        C  0.46915562  0.27812644  0.75803509    -0.12600
C682        C  0.45438873  0.23747021  0.77671454     0.09600
C683        C  0.43410164  0.19781086  0.75605616    -0.12600
C684        C  0.43211938  0.19879577  0.71750849    -0.12600
C685        C  0.45089950  0.23952548  0.69830398     0.09600
C686        C  0.46763049  0.27917841  0.71904033    -0.12600
H687        H  0.48445900  0.30927007  0.77329218     0.13600
H688        H  0.42131393  0.16587140  0.76958531     0.13600
H689        H  0.41784563  0.16742480  0.70261742     0.13600
H690        H  0.48196912  0.31105300  0.70514312     0.13600
C691        C  0.48577355  0.30387651  0.90286201    -0.15700
C692        C  0.46749047  0.32932506  0.89574401    -0.30800
H693        H  0.50147735  0.30662634  0.92945328     0.13400
H694        H  0.44965174  0.32432500  0.86987101     0.13900
C695        C  0.47879788  0.16032522  0.87960694    -0.15700
C696        C  0.50282082  0.16231977  0.90943867    -0.30800
H697        H  0.45999781  0.12910989  0.86456928     0.13400
H698        H  0.52346625  0.19419761  0.92309592     0.13900
C699        C  0.65965300  0.50872730  0.88422484    -0.15700
C700        C  0.64119470  0.48811448  0.91635569    -0.30800
H701        H  0.64407682  0.52389760  0.86849737     0.13400
H702        H  0.65525154  0.47057522  0.93079651     0.13900
C703        C  0.84055958  0.51720749  0.88976631    -0.15700
C704        C  0.79749349  0.50139169  0.89964114    -0.30800
H705        H  0.85280620  0.53455426  0.86347835     0.13400
H706        H  0.78557948  0.48643401  0.92680577     0.13900
C707        C  0.68242290  0.52766084  0.58549884    -0.15700
C708        C  0.65947404  0.50256883  0.55639234    -0.30800
H709        H  0.67130137  0.54844383  0.59942627     0.13400
H710        H  0.66896933  0.47965853  0.54413281     0.13900
C711        C  0.73560085  0.54698580  0.71710408    -0.12600
C712        C  0.76107770  0.53161704  0.69783515     0.09600
C713        C  0.78548074  0.51668927  0.71829768    -0.12600
C714        C  0.78247522  0.51497644  0.75713346    -0.12600
C715        C  0.75483613  0.52792754  0.77609537     0.09600
C716        C  0.73234152  0.54494469  0.75569025    -0.12600
H717        H  0.71679071  0.55925996  0.70234043     0.13600
H718        H  0.80541162  0.50464370  0.70431295     0.13600
H719        H  0.80023083  0.50172751  0.77216359     0.13600
H720        H  0.71127560  0.55577880  0.76948929     0.13600
C721        C  0.80696763  0.49542440  0.57714682    -0.15700
C722        C  0.84519047  0.49929114  0.59030820    -0.30800
H723        H  0.79842008  0.48643201  0.54821650     0.13400
H724        H  0.85517196  0.51112159  0.61853626     0.13900
C725        C  0.65142633  0.12467047  0.58353987    -0.15700
C726        C  0.68436505  0.16507991  0.57253141    -0.30800
H727        H  0.65426225  0.11181289  0.61014559     0.13400
H728        H  0.68317611  0.17720334  0.54510768     0.13900
C729        C  0.83829910  0.29307316  0.58597684    -0.15700
C730        C  0.83564352  0.31556279  0.55686957    -0.30800
H731        H  0.86992680  0.30583823  0.60039270     0.13400
H732        H  0.80309603  0.30424177  0.54439462     0.13900
C733        C  0.65721922  0.12767469  0.89339798    -0.15700
C734        C  0.68169505  0.17203576  0.89823778    -0.30800
H735        H  0.66442483  0.11252638  0.86971556     0.13400
H736        H  0.67622446  0.18721215  0.92279463     0.13900
C737        C  0.79707606  0.22747871  0.75432840    -0.12600
C738        C  0.75590115  0.20604228  0.77369745     0.09600
C739        C  0.71643763  0.17990283  0.75355229    -0.12600
C740        C  0.71789292  0.17853907  0.71456006    -0.12600
C741        C  0.75885489  0.20322603  0.69513320     0.09600
C742        C  0.79854794  0.22603285  0.71564286    -0.12600
H743        H  0.82823414  0.24720397  0.76903011     0.13600
H744        H  0.68422861  0.16288198  0.76769442     0.13600
H745        H  0.68669122  0.16031050  0.69964353     0.13600
H746        H  0.83079128  0.24463001  0.70175210     0.13600
C747        C  0.82459409  0.31043001  0.87592907    -0.15700
C748        C  0.82053997  0.33379905  0.90410308    -0.30800
H749        H  0.85649039  0.32329401  0.86130293     0.13400
H750        H  0.78804627  0.32200239  0.91746807     0.13900
C751        C  0.30650751  0.47183016  0.91800496    -0.15700
C752        C  0.28752435  0.44966081  0.88675843    -0.30800
H753        H  0.29350907  0.49115747  0.93174059     0.13400
H754        H  0.30205603  0.43254670  0.87165079     0.13900
C755        C  0.16252063  0.48021449  0.89509465    -0.15700
C756        C  0.12304767  0.47340316  0.88254211    -0.30800
H757        H  0.17275533  0.49246646  0.92319259     0.13400
H758        H  0.11157608  0.45828603  0.85538578     0.13900
C759        C  0.17390880  0.44469564  0.71671539    -0.12600
C760        C  0.20421847  0.43568419  0.69722078     0.09600
C761        C  0.23273739  0.42578056  0.71721400    -0.12600
C762        C  0.23258226  0.42688502  0.75582494    -0.12600
C763        C  0.20415843  0.43832297  0.77545916     0.09600
C764        C  0.17398572  0.44615838  0.75554521    -0.12600
H765        H  0.15145707  0.45245338  0.70199954     0.13600
H766        H  0.25606161  0.41820574  0.70300722     0.13600
H767        H  0.25597571  0.42016866  0.77018840     0.13600
H768        H  0.15155246  0.45488247  0.76983245     0.13600
C769        C  0.29444632  0.45810083  0.58532227    -0.15700
C770        C  0.32022104  0.48936722  0.56023229    -0.30800
H771        H  0.30659542  0.43736660  0.59702652     0.13400
H772        H  0.30979297  0.51230928  0.55040663     0.13900
C773        C  0.14362670  0.44661943  0.57921978    -0.15700
C774        C  0.14800409  0.46946664  0.54818029    -0.30800
H775        H  0.11117508  0.42980787  0.59326621     0.13400
H776        H  0.18097706  0.48927629  0.53546689     0.13900
C777        C  0.14511416  0.67415666  0.59922273    -0.15700
C778        C  0.14949189  0.65291650  0.56952614    -0.30800
H779        H  0.11332096  0.65996653  0.61419115     0.13400
H780        H  0.18206881  0.66631885  0.55590981     0.13900
C781        C  0.28564572  0.81497838  0.57631348    -0.15700
C782        C  0.31010564  0.85902322  0.58292225    -0.30800
H783        H  0.29118126  0.80108349  0.55097624     0.13400
H784        H  0.30275220  0.87281160  0.60747633     0.13900
C785        C  0.14197496  0.69693179  0.88831167    -0.15700
C786        C  0.14576886  0.66906998  0.91144227    -0.30800
H787        H  0.10944253  0.68833690  0.87716186     0.13400
H788        H  0.17887214  0.67653691  0.92037889     0.13900
C789        C  0.17764157  0.76065409  0.76122207    -0.12600
C790        C  0.21823814  0.78599237  0.78026534     0.09600
C791        C  0.25796739  0.81060148  0.75940803    -0.12600
C792        C  0.25735168  0.80699938  0.72048100    -0.12600
C793        C  0.21709851  0.77842866  0.70199532     0.09600
C794        C  0.17714853  0.75663081  0.72275212    -0.12600
H795        H  0.14615078  0.74185125  0.77615022     0.13600
H796        H  0.28974373  0.83057913  0.77316579     0.13600
H797        H  0.28867162  0.82448967  0.70510901     0.13600
H798        H  0.14545563  0.73508631  0.70935237     0.13600
C799        C  0.32672949  0.86440567  0.89382784    -0.15700
C800        C  0.29543029  0.82260894  0.90259466    -0.30800
H801        H  0.32330620  0.87869991  0.86818465     0.13400
H802        H  0.29699080  0.80883720  0.92913006     0.13900
C803        C  0.49338803  0.64283985  0.89584472    -0.15700
C804        C  0.47837545  0.67097549  0.90455520    -0.30800
H805        H  0.51263283  0.64839436  0.87029591     0.13400
H806        H  0.46188705  0.66775968  0.93120346     0.13900
C807        C  0.50683221  0.82512291  0.89302362    -0.15700
C808        C  0.48391682  0.82531672  0.92338632    -0.30800
H809        H  0.52715854  0.85601141  0.87794976     0.13400
H810        H  0.46108283  0.79396393  0.93693491     0.13900
C811        C  0.49367256  0.68603747  0.57650955    -0.15700
C812        C  0.51428405  0.66253734  0.58349014    -0.30800
H813        H  0.47630985  0.68114947  0.55042588     0.13400
H814        H  0.53379053  0.66935934  0.60863461     0.13900
C815        C  0.46942979  0.82427400  0.56585293    -0.15700
C816        C  0.49064066  0.82549236  0.59731712    -0.30800
H817        H  0.45101955  0.79311000  0.55066558     0.13400
H818        H  0.50639136  0.85596060  0.61368808     0.13900
C819        C  0.52979507  0.78991720  0.72402728    -0.12600
C820        C  0.51263690  0.75065554  0.70290327     0.09600
C821        C  0.49816211  0.71000530  0.72142157    -0.12600
C822        C  0.49812771  0.70846209  0.76045365    -0.12600
C823        C  0.51295375  0.74764008  0.78158189     0.09600
C824        C  0.53020160  0.78846843  0.76269321    -0.12600
H825        H  0.54188649  0.82186210  0.71067865     0.13600
H826        H  0.48479038  0.67916299  0.70585240     0.13600
H827        H  0.48472360  0.67648938  0.77402668     0.13600
H828        H  0.54269293  0.81951388  0.77783572     0.13600
loop_ 
_geom_bond_atom_site_label_1 
_geom_bond_atom_site_label_2 
_geom_bond_distance 
_geom_bond_site_symmetry_2 
_ccdc_geom_bond_type 
C1            N2   1.361       .  A
C1            N6   1.352       .  A
C1          C397   1.467       .  S
N2            C3   1.361       .  A
C3            N4   1.366       .  A
C3          C406   1.493       .  S
N4            C5   1.363       .  A
C5            N6   1.351       .  A
C5          C402   1.476       .  S
C7            N8   1.357       .  A
C7           N12   1.370       .  A
C7          C390   1.481       .  S
N8            C9   1.355       .  A
C9           N10   1.350       .  A
C9          C393   1.467       .  S
N10          C11   1.356       .  A
C11          N12   1.369       .  A
C11         C409   1.494       .  S
C13          N14   1.367       .  A
C13          N18   1.357       .  A
C13         C386   1.482       .  S
N14          C15   1.366       .  A
C15          N16   1.361       .  A
C15         C376   1.492       .  S
N16          C17   1.354       .  A
C17          N18   1.357       .  A
C17         C371   1.478       .  S
C19          N20   1.364       .  A
C19          N24   1.364       .  A
C19         C367   1.484       .  S
N20          C21   1.361       .  A
C21          N22   1.356       .  A
C21         C363   1.484       .  S
N22          C23   1.360       .  A
C23          N24   1.362       .  A
C23         C379   1.489       .  S
C25          N26   1.353       .  A
C25          N30   1.359       .  A
C25         C359   1.470       .  S
N26          C27   1.356       .  A
C27          N28   1.359       .  A
C27         C346   1.477       .  S
N28          C29   1.360       .  A
C29          N30   1.354       .  A
C29         C355   1.477       .  S
C31          N32   1.360       .  A
C31          N36   1.356       .  A
C31         C341   1.474       .  S
N32          C33   1.358       .  A
C33          N34   1.355       .  A
C33         C349   1.478       .  S
N34          C35   1.352       .  A
C35          N36   1.359       .  A
C35         C338   1.465       .  S
C37          N38   1.350       .  A
C37          N42   1.361       .  A
C37         C333   1.477       .  S
N38          C39   1.352       .  A
C39          N40   1.363       .  A
C39         C320   1.470       .  S
N40          C41   1.366       .  A
C41          N42   1.366       .  A
C41         C324   1.494       .  S
C43          N44   1.354       .  A
C43          N48   1.359       .  A
C43         C315   1.477       .  S
N44          C45   1.359       .  A
C45          N46   1.367       .  A
C45         C327   1.493       .  S
N46          C47   1.366       .  A
C47          N48   1.360       .  A
C47         C312   1.485       .  S
C49          N50   1.352       .  A
C49          N54   1.361       .  A
C49         C293   1.472       .  S
N50          C51   1.353       .  A
C51          N52   1.359       .  A
C51         C307   1.470       .  S
N52          C53   1.363       .  A
C53          N54   1.363       .  A
C53         C298   1.489       .  S
C55          N56   1.361       .  A
C55          N60   1.364       .  A
C55         C285   1.489       .  S
N56          C57   1.362       .  A
C57          N58   1.358       .  A
C57         C290   1.486       .  S
N58          C59   1.361       .  A
C59          N60   1.363       .  A
C59         C301   1.491       .  S
C61          N62   1.362       .  A
C61          N66   1.354       .  A
C61         C281   1.476       .  S
N62          C63   1.363       .  A
C63          N64   1.362       .  A
C63         C277   1.482       .  S
N64          C65   1.359       .  A
C65          N66   1.356       .  A
C65         C268   1.481       .  S
C67          N68   1.358       .  A
C67          N72   1.354       .  A
C67         C264   1.469       .  S
N68          C69   1.358       .  A
C69          N70   1.362       .  A
C69         C259   1.477       .  S
N70          C71   1.360       .  A
C71          N72   1.357       .  A
C71         C271   1.479       .  S
O73         Zr85   2.443       .  S
O73          C75   1.285       .  A
O74        Zr525   2.415   1_554  S
O74          C75   1.286       .  A
C75         C398   1.474       .  S
O76         Zr88   2.431       .  S
O76          C78   1.285       .  A
O77        Zr112   2.463       .  S
O77          C78   1.293       .  A
C78         C286   1.483       .  S
O79         Zr88   2.440       .  S
O79          C81   1.286       .  A
O80        Zr111   2.450       .  S
O80          C81   1.292       .  A
C81         C389   1.485       .  S
O82         Zr85   2.428       .  S
O82          C84   1.285       .  A
O83        Zr526   2.434   1_554  S
O83          C84   1.289       .  A
C84         C294   1.474       .  S
Zr85         O86   2.434       .  S
Zr85         O87   2.438       .  S
Zr85        O115   2.373       .  S
Zr85        O117   2.356       .  S
Zr85        O505   2.375   1_554  S
Zr85        O506   2.370   1_554  S
O86         H129   0.990       .  S
O87         H128   0.990       .  S
O87         H132   0.990       .  S
Zr88         O89   2.436       .  S
Zr88         O90   2.434       .  S
Zr88         O92   2.373       .  S
Zr88         O91   2.379       .  S
Zr88        O116   2.364       .  S
Zr88        O118   2.374       .  S
O89         H130   0.990       .  S
O89         H133   0.990       .  S
O90         H123   0.990       .  S
O91        Zr111   2.385       .  S
O91        Zr499   2.384       .  S
O92        Zr112   2.396       .  S
O92        Zr499   2.380       .  S
O92         H119   0.968       .  S
O93        Zr105   2.436       .  S
O93          C95   1.285       .  A
O94        Zr526   2.428   1_554  S
O94          C95   1.287       .  A
C95         C260   1.476       .  S
O96        Zr108   2.452       .  S
O96          C98   1.292       .  A
O97        Zr111   2.398       .  S
O97          C98   1.281       .  A
C98         C337   1.466       .  S
O99        Zr108   2.446       .  S
O99         C101   1.288       .  A
O100       Zr112   2.434       .  S
O100        C101   1.289       .  A
C101        C278   1.479       .  S
O102       Zr105   2.421       .  S
O102        C104   1.283       .  A
O103       Zr525   2.446   1_554  S
O103        C104   1.290       .  A
C104        C356   1.467       .  S
Zr105       O106   2.436       .  S
Zr105       O107   2.433       .  S
Zr105       O117   2.374       .  S
Zr105       O115   2.359       .  S
Zr105       O527   2.367   1_554  S
Zr105       O528   2.368   1_554  S
O106        H126   0.990       .  S
O106        H131   0.990       .  S
O107        H127   0.990       .  S
Zr108       O109   2.433       .  S
Zr108       O110   2.434       .  S
Zr108       O114   2.362       .  S
Zr108       O113   2.375       .  S
Zr108       O118   2.368       .  S
Zr108       O116   2.365       .  S
O109        H125   0.990       .  S
O110        H124   0.990       .  S
O110        H134   0.990       .  S
Zr111       O488   2.431       .  S
Zr111       O517   2.440       .  S
Zr111       O114   2.383       .  S
Zr111       O116   2.387       .  S
Zr111       O531   2.387       .  S
Zr112       O497   2.418       .  S
Zr112       O508   2.468       .  S
Zr112       O113   2.395       .  S
Zr112       O118   2.386       .  S
Zr112       O529   2.388       .  S
O113       Zr519   2.380       .  S
O113        H121   0.965       .  S
O114       Zr519   2.359       .  S
O115       Zr526   2.378   1_554  S
O116        H120   0.965       .  S
O117       Zr525   2.384   1_554  S
O117        H122   0.965       .  S
O135       Zr147   2.457   1_455  S
O135        C137   1.292       .  A
O136       Zr173   2.419       .  S
O136        C137   1.285       .  A
C137        C372   1.476       .  S
O138       Zr150   2.449       .  S
O138        C140   1.288       .  A
O139       Zr588   2.415   1_554  S
O139        C140   1.287       .  A
C140        C308   1.479       .  S
O141       Zr150   2.456   1_455  S
O141        C143   1.291       .  A
O142       Zr587   2.437   1_554  S
O142        C143   1.288       .  A
C143        C364   1.487       .  S
O144       Zr147   2.475       .  S
O144        C146   1.294       .  A
O145       Zr174   2.409       .  S
O145        C146   1.283       .  A
C146        C289   1.480       .  S
Zr147       O148   2.434       .  S
Zr147       O149   2.434       .  S
Zr147       O153   2.380   1_655  S
Zr147       O154   2.376       .  S
Zr147       O177   2.365       .  S
Zr147       O179   2.378   1_655  S
O148        H191   0.990       .  S
O149        H190   0.990       .  S
O149        H194   0.990       .  S
Zr150       O151   2.435       .  S
Zr150       O152   2.434       .  S
Zr150       O178   2.374   1_655  S
Zr150       O180   2.370       .  S
Zr150       O568   2.385   1_554  S
Zr150       O567   2.369   1_654  S
O151        H192   0.990       .  S
O151        H195   0.990   1_655  S
O152        H185   0.990       .  S
O153       Zr173   2.378       .  S
O153       Zr564   2.371   1_455  S
O154       Zr174   2.386       .  S
O154       Zr564   2.384       .  S
O154        H181   0.966       .  S
O155       Zr167   2.415       .  S
O155        C157   1.282       .  A
O156       Zr174   2.450       .  S
O156        C157   1.292       .  A
C157        C334   1.476       .  S
O158       Zr170   2.452   1_455  S
O158        C160   1.290       .  A
O159       Zr587   2.389   1_554  S
O159        C160   1.279       .  A
C160        C360   1.460       .  S
O161       Zr170   2.458       .  S
O161        C163   1.291       .  A
O162       Zr588   2.418   1_554  S
O162        C163   1.284       .  A
C163        C316   1.476       .  S
O164       Zr167   2.429   1_455  S
O164        C166   1.284       .  A
O165       Zr173   2.425       .  S
O165        C166   1.286       .  A
C166        C342   1.469       .  S
Zr167       O168   2.432       .  S
Zr167       O169   2.436       .  S
Zr167       O175   2.371       .  S
Zr167       O176   2.367   1_655  S
Zr167       O179   2.364   1_655  S
Zr167       O177   2.371       .  S
O168        H188   0.990       .  S
O168        H193   0.990   1_655  S
O169        H189   0.990   1_655  S
Zr170       O171   2.433       .  S
Zr170       O172   2.436       .  S
Zr170       O180   2.369       .  S
Zr170       O178   2.375   1_655  S
Zr170       O590   2.378   1_654  S
Zr170       O589   2.369   1_554  S
O171        H187   0.990       .  S
O172        H186   0.990       .  S
O172        H196   0.990       .  S
Zr173       O556   2.412       .  S
Zr173       O573   2.416       .  S
Zr173       O176   2.378       .  S
Zr173       O179   2.381       .  S
Zr173       O592   2.388       .  S
Zr174       O553   2.449       .  S
Zr174       O576   2.411       .  S
Zr174       O175   2.384       .  S
Zr174       O177   2.378       .  S
Zr174       O594   2.384       .  S
O175       Zr584   2.377       .  S
O175        H183   0.967       .  S
O176       Zr584   2.381   1_455  S
O178       Zr587   2.387   1_554  S
O178        H182   0.966       .  S
O179        H184   0.967       .  S
O180       Zr588   2.381   1_554  S
O197       Zr209   2.446       .  S
O197        C199   1.289       .  A
O198       Zr235   2.411       .  S
O198        C199   1.283       .  A
C199        C394   1.469       .  S
O200       Zr212   2.458   1_545  S
O200        C202   1.290       .  A
O201       Zr650   2.437   1_554  S
O201        C202   1.289       .  A
C202        C311   1.489       .  S
O203       Zr212   2.432       .  S
O203        C205   1.285       .  A
O204       Zr649   2.445   1_554  S
O204        C205   1.292       .  A
C205        C401   1.476       .  S
O206       Zr209   2.449   1_545  S
O206        C208   1.288       .  A
O207       Zr236   2.410       .  S
O207        C208   1.286       .  A
C208        C319   1.480       .  S
Zr209       O210   2.436       .  S
Zr209       O211   2.439       .  S
Zr209       O215   2.366       .  S
Zr209       O216   2.377   1_565  S
Zr209       O239   2.369   1_565  S
Zr209       O241   2.371       .  S
O210        H253   0.990       .  S
O211        H252   0.990       .  S
O211        H256   0.990       .  S
Zr212       O213   2.436       .  S
Zr212       O214   2.434       .  S
Zr212       O240   2.376       .  S
Zr212       O242   2.361   1_565  S
Zr212       O630   2.373   1_564  S
Zr212       O629   2.377   1_554  S
O213        H254   0.990       .  S
O213        H257   0.990       .  S
O214        H247   0.990       .  S
O215       Zr235   2.380       .  S
O215       Zr626   2.366       .  S
O216       Zr236   2.385       .  S
O216       Zr626   2.379   1_545  S
O216        H243   0.966       .  S
O217       Zr229   2.443       .  S
O217        C219   1.289       .  A
O218       Zr236   2.433       .  S
O218        C219   1.287       .  A
C219        C282   1.481       .  S
O220       Zr232   2.459   1_565  S
O220        C222   1.290       .  A
O221       Zr649   2.434   1_554  S
O221        C222   1.288       .  A
C222        C368   1.486       .  S
O223       Zr232   2.437       .  S
O223        C225   1.289       .  A
O224       Zr650   2.418   1_554  S
O224        C225   1.285       .  A
C225        C263   1.471       .  S
O226       Zr229   2.431   1_565  S
O226        C228   1.285       .  A
O227       Zr235   2.459       .  S
O227        C228   1.294       .  A
C228        C385   1.483       .  S
Zr229       O230   2.434       .  S
Zr229       O231   2.435       .  S
Zr229       O237   2.365       .  S
Zr229       O238   2.385   1_545  S
Zr229       O241   2.373   1_545  S
Zr229       O239   2.365       .  S
O230        H250   0.990       .  S
O230        H255   0.990       .  S
O231        H251   0.990       .  S
Zr232       O233   2.432       .  S
Zr232       O234   2.435       .  S
Zr232       O242   2.377       .  S
Zr232       O240   2.351   1_545  S
Zr232       O652   2.376   1_544  S
Zr232       O651   2.368   1_554  S
O233        H249   0.990   1_545  S
O234        H248   0.990       .  S
O234        H258   0.990       .  S
Zr235       O618   2.433       .  S
Zr235       O635   2.437       .  S
Zr235       O238   2.386       .  S
Zr235       O241   2.388       .  S
Zr235       O654   2.389       .  S
Zr236       O615   2.443       .  S
Zr236       O638   2.399       .  S
Zr236       O237   2.386       .  S
Zr236       O239   2.378       .  S
Zr236       O656   2.386       .  S
O237       Zr646   2.359       .  S
O237        H245   0.966       .  S
O238       Zr646   2.388   1_565  S
O240       Zr649   2.386   1_554  S
O240        H244   0.965       .  S
O241        H246   0.964       .  S
O242       Zr650   2.384   1_554  S
C259        C260   1.343       .  D
C259        H261   1.086       .  S
C260        H262   1.087       .  S
C263        C264   1.342       .  D
C263        H265   1.087       .  S
C264        H266   1.087       .  S
C267        C268   1.406       .  A
C267        C272   1.401       .  A
C267        H273   1.083       .  S
C268        C269   1.405       .  A
C269        C270   1.395       .  A
C269        H274   1.083       .  S
C270        C271   1.404       .  A
C270        H275   1.083       .  S
C271        C272   1.405       .  A
C272        H276   1.083       .  S
C277        C278   1.346       .  D
C277        H279   1.086       .  S
C278        H280   1.087       .  S
C281        C282   1.344       .  D
C281        H283   1.087       .  S
C282        H284   1.087       .  S
C285        C286   1.345       .  D
C285        H287   1.087       .  S
C286        H288   1.087       .  S
C289        C290   1.344       .  D
C289        H291   1.087       .  S
C290        H292   1.087       .  S
C293        C294   1.339       .  D
C293        H295   1.087       .  S
C294        H296   1.087       .  S
C297        C298   1.408       .  A
C297        C302   1.403       .  A
C297        H303   1.083       .  S
C298        C299   1.406       .  A
C299        C300   1.398       .  A
C299        H304   1.083       .  S
C300        C301   1.407       .  A
C300        H305   1.083       .  S
C301        C302   1.408       .  A
C302        H306   1.083       .  S
C307        C308   1.344       .  D
C307        H309   1.087       .  S
C308        H310   1.087       .  S
C311        C312   1.347       .  D
C311        H313   1.087       .  S
C312        H314   1.087       .  S
C315        C316   1.341       .  D
C315        H317   1.087       .  S
C316        H318   1.087       .  S
C319        C320   1.343       .  D
C319        H321   1.086       .  S
C320        H322   1.087       .  S
C323        C324   1.406       .  A
C323        C328   1.398       .  A
C323        H329   1.083       .  S
C324        C325   1.410       .  A
C325        C326   1.406       .  A
C325        H330   1.083       .  S
C326        C327   1.407       .  A
C326        H331   1.083       .  S
C327        C328   1.409       .  A
C328        H332   1.083       .  S
C333        C334   1.338       .  D
C333        H335   1.087       .  S
C334        H336   1.087       .  S
C337        C338   1.337       .  D
C337        H339   1.087       .  S
C338        H340   1.087       .  S
C341        C342   1.341       .  D
C341        H343   1.087       .  S
C342        H344   1.087       .  S
C345        C346   1.406       .  A
C345        C350   1.395       .  A
C345        H351   1.083       .  S
C346        C347   1.403       .  A
C347        C348   1.395       .  A
C347        H352   1.083       .  S
C348        C349   1.407       .  A
C348        H353   1.083       .  S
C349        C350   1.404       .  A
C350        H354   1.083       .  S
C355        C356   1.337       .  D
C355        H357   1.087       .  S
C356        H358   1.087       .  S
C359        C360   1.336       .  D
C359        H361   1.087       .  S
C360        H362   1.087       .  S
C363        C364   1.346       .  D
C363        H365   1.087       .  S
C364        H366   1.087       .  S
C367        C368   1.348       .  D
C367        H369   1.086       .  S
C368        H370   1.087       .  S
C371        C372   1.343       .  D
C371        H373   1.087       .  S
C372        H374   1.087       .  S
C375        C376   1.407       .  A
C375        C380   1.394       .  A
C375        H381   1.083       .  S
C376        C377   1.409       .  A
C377        C378   1.408       .  A
C377        H382   1.083       .  S
C378        C379   1.409       .  A
C378        H383   1.083       .  S
C379        C380   1.404       .  A
C380        H384   1.083       .  S
C385        C386   1.341       .  D
C385        H387   1.087       .  S
C386        H388   1.087       .  S
C389        C390   1.341       .  D
C389        H391   1.087       .  S
C390        H392   1.087       .  S
C393        C394   1.338       .  D
C393        H395   1.087       .  S
C394        H396   1.087       .  S
C397        C398   1.340       .  D
C397        H399   1.087       .  S
C398        H400   1.087       .  S
C401        C402   1.339       .  D
C401        H403   1.087       .  S
C402        H404   1.087       .  S
C405        C406   1.403       .  A
C405        C410   1.396       .  A
C405        H411   1.083       .  S
C406        C407   1.412       .  A
C407        C408   1.408       .  A
C407        H412   1.083       .  S
C408        C409   1.406       .  A
C408        H413   1.083       .  S
C409        C410   1.411       .  A
C410        H414   1.083       .  S
C415        N416   1.364       .  A
C415        N420   1.362       .  A
C415        C811   1.483       .  S
N416        C417   1.361       .  A
C417        N418   1.360       .  A
C417        C820   1.486       .  S
N418        C419   1.357       .  A
C419        N420   1.361       .  A
C419        C816   1.482       .  S
C421        N422   1.364       .  A
C421        N426   1.369       .  A
C421        C804   1.490       .  S
N422        C423   1.361       .  A
C423        N424   1.352       .  A
C423        C807   1.480       .  S
N424        C425   1.357       .  A
C425        N426   1.366       .  A
C425        C823   1.492       .  S
C427        N428   1.369       .  A
C427        N432   1.359       .  A
C427        C800   1.484       .  S
N428        C429   1.365       .  A
C429        N430   1.355       .  A
C429        C790   1.487       .  S
N430        C431   1.348       .  A
C431        N432   1.358       .  A
C431        C785   1.468       .  S
C433        N434   1.359       .  A
C433        N438   1.363       .  A
C433        C781   1.480       .  S
N434        C435   1.360       .  A
C435        N436   1.355       .  A
C435        C777   1.477       .  S
N436        C437   1.360       .  A
C437        N438   1.360       .  A
C437        C793   1.482       .  S
C439        N440   1.354       .  A
C439        N444   1.370       .  A
C439        C773   1.478       .  S
N440        C441   1.352       .  A
C441        N442   1.356       .  A
C441        C760   1.476       .  S
N442        C443   1.356       .  A
C443        N444   1.369       .  A
C443        C769   1.484       .  S
C445        N446   1.363       .  A
C445        N450   1.359       .  A
C445        C755   1.480       .  S
N446        C447   1.361       .  A
C447        N448   1.355       .  A
C447        C763   1.479       .  S
N448        C449   1.350       .  A
C449        N450   1.360       .  A
C449        C752   1.471       .  S
C451        N452   1.359       .  A
C451        N456   1.352       .  A
C451        C747   1.473       .  S
N452        C453   1.360       .  A
C453        N454   1.367       .  A
C453        C734   1.481       .  S
N454        C455   1.364       .  A
C455        N456   1.357       .  A
C455        C738   1.485       .  S
C457        N458   1.357       .  A
C457        N462   1.363       .  A
C457        C729   1.486       .  S
N458        C459   1.361       .  A
C459        N460   1.362       .  A
C459        C741   1.490       .  S
N460        C461   1.364       .  A
C461        N462   1.362       .  A
C461        C726   1.488       .  S
C463        N464   1.362       .  A
C463        N468   1.351       .  A
C463        C707   1.477       .  S
N464        C465   1.363       .  A
C465        N466   1.364       .  A
C465        C721   1.487       .  S
N466        C467   1.362       .  A
C467        N468   1.356       .  A
C467        C712   1.482       .  S
C469        N470   1.360       .  A
C469        N474   1.354       .  A
C469        C699   1.473       .  S
N470        C471   1.358       .  A
C471        N472   1.361       .  A
C471        C704   1.478       .  S
N472        C473   1.359       .  A
C473        N474   1.358       .  A
C473        C715   1.479       .  S
C475        N476   1.360       .  A
C475        N480   1.357       .  A
C475        C695   1.481       .  S
N476        C477   1.360       .  A
C477        N478   1.364       .  A
C477        C691   1.483       .  S
N478        C479   1.360       .  A
C479        N480   1.361       .  A
C479        C682   1.487       .  S
C481        N482   1.360       .  A
C481        N486   1.348       .  A
C481        C678   1.470       .  S
N482        C483   1.362       .  A
C483        N484   1.370       .  A
C483        C673   1.491       .  S
N484        C485   1.366       .  A
C485        N486   1.355       .  A
C485        C685   1.488       .  S
O487       Zr499   2.462       .  S
O487        C489   1.291       .  A
O488        C489   1.288       .  A
C489        C812   1.485       .  S
O490       Zr502   2.456       .  S
O490        C492   1.292       .  A
O491       Zr526   2.408       .  S
O491        C492   1.283       .  A
C492        C700   1.472       .  S
O493       Zr502   2.443       .  S
O493        C495   1.288       .  A
O494       Zr525   2.464       .  S
O494        C495   1.294       .  A
C495        C803   1.489       .  S
O496       Zr499   2.466       .  S
O496        C498   1.294       .  A
O497        C498   1.285       .  A
C498        C708   1.481       .  S
Zr499       O500   2.435       .  S
Zr499       O501   2.435       .  S
Zr499       O529   2.374       .  S
Zr499       O531   2.383       .  S
O500        H543   0.990       .  S
O501        H542   0.990       .  S
O501        H546   0.990       .  S
Zr502       O503   2.437       .  S
Zr502       O504   2.434       .  S
Zr502       O506   2.377       .  S
Zr502       O505   2.381       .  S
Zr502       O530   2.377       .  S
Zr502       O532   2.368       .  S
O503        H544   0.990       .  S
O503        H547   0.990       .  S
O504        H537   0.990       .  S
O505       Zr525   2.384       .  S
O506       Zr526   2.394       .  S
O506        H533   0.965       .  S
O507       Zr519   2.436       .  S
O507        C509   1.286       .  A
O508        C509   1.295       .  A
C509        C674   1.488       .  S
O510       Zr522   2.453       .  S
O510        C512   1.291       .  A
O511       Zr525   2.397       .  S
O511        C512   1.281       .  A
C512        C751   1.469       .  S
O513       Zr522   2.435       .  S
O513        C515   1.286       .  A
O514       Zr526   2.447       .  S
O514        C515   1.291       .  A
C515        C692   1.480       .  S
O516       Zr519   2.464       .  S
O516        C518   1.293       .  A
O517        C518   1.288       .  A
C518        C770   1.494       .  S
Zr519       O520   2.440       .  S
Zr519       O521   2.434       .  S
Zr519       O531   2.366       .  S
Zr519       O529   2.378       .  S
O520        H540   0.990       .  S
O520        H545   0.990       .  S
O521        H541   0.990       .  S
Zr522       O523   2.435       .  S
Zr522       O524   2.433       .  S
Zr522       O528   2.368       .  S
Zr522       O527   2.376       .  S
Zr522       O532   2.373       .  S
Zr522       O530   2.368       .  S
O523        H539   0.990       .  S
O524        H538   0.990       .  S
O524        H548   0.990       .  S
Zr525       O528   2.389       .  S
Zr525       O530   2.387       .  S
Zr526       O527   2.386       .  S
Zr526       O532   2.383       .  S
O527        H535   0.963       .  S
O530        H534   0.965       .  S
O531        H536   0.966       .  S
O549       Zr561   2.459   1_455  S
O549        C551   1.292       .  A
O550       Zr587   2.396       .  S
O550        C551   1.280       .  A
C551        C786   1.472       .  S
O552       Zr564   2.445       .  S
O552        C554   1.287       .  A
O553        C554   1.291       .  A
C554        C722   1.483       .  S
O555       Zr564   2.459   1_455  S
O555        C557   1.291       .  A
O556        C557   1.283       .  A
C557        C778   1.478       .  S
O558       Zr561   2.432       .  S
O558        C560   1.286       .  A
O559       Zr588   2.438       .  S
O559        C560   1.289       .  A
C560        C703   1.476       .  S
Zr561       O562   2.432       .  S
Zr561       O563   2.437       .  S
Zr561       O567   2.359   1_655  S
Zr561       O568   2.383       .  S
Zr561       O591   2.378       .  S
Zr561       O593   2.368   1_655  S
O562        H605   0.990   1_655  S
O563        H604   0.990   1_655  S
O563        H608   0.990   1_655  S
Zr564       O565   2.435       .  S
Zr564       O566   2.436       .  S
Zr564       O592   2.369   1_655  S
Zr564       O594   2.374       .  S
O565        H606   0.990       .  S
O565        H609   0.990       .  S
O566        H599   0.990   1_655  S
O567       Zr587   2.372       .  S
O568       Zr588   2.389       .  S
O568        H595   0.967       .  S
O569       Zr581   2.452       .  S
O569        C571   1.291       .  A
O570       Zr588   2.420       .  S
O570        C571   1.284       .  A
C571        C748   1.478       .  S
O572       Zr584   2.476   1_455  S
O572        C574   1.296       .  A
O573        C574   1.284       .  A
C574        C774   1.484       .  S
O575       Zr584   2.479       .  S
O575        C577   1.295       .  A
O576        C577   1.284       .  A
C577        C730   1.484       .  S
O578       Zr581   2.428   1_455  S
O578        C580   1.284       .  A
O579       Zr587   2.443       .  S
O579        C580   1.290       .  A
C580        C756   1.475       .  S
Zr581       O582   2.435       .  S
Zr581       O583   2.436       .  S
Zr581       O589   2.368       .  S
Zr581       O590   2.377   1_655  S
Zr581       O593   2.378   1_655  S
Zr581       O591   2.364       .  S
O582        H602   0.990       .  S
O582        H607   0.990       .  S
O583        H603   0.990       .  S
Zr584       O585   2.436       .  S
Zr584       O586   2.435       .  S
Zr584       O594   2.375       .  S
Zr584       O592   2.384   1_655  S
O585        H601   0.990       .  S
O586        H600   0.990   1_655  S
O586        H610   0.990   1_655  S
Zr587       O590   2.377       .  S
Zr587       O593   2.379       .  S
Zr588       O589   2.380       .  S
Zr588       O591   2.378       .  S
O589        H597   0.965       .  S
O592        H596   0.966       .  S
O593        H598   0.965       .  S
O611       Zr623   2.470       .  S
O611        C613   1.294       .  A
O612       Zr649   2.415       .  S
O612        C613   1.284       .  A
C613        C808   1.483       .  S
O614       Zr626   2.446   1_545  S
O614        C616   1.288       .  A
O615        C616   1.290       .  A
C616        C725   1.484       .  S
O617       Zr626   2.452       .  S
O617        C619   1.291       .  A
O618        C619   1.288       .  A
C619        C815   1.484       .  S
O620       Zr623   2.448   1_545  S
O620        C622   1.289       .  A
O621       Zr650   2.435       .  S
O621        C622   1.290       .  A
C622        C733   1.482       .  S
Zr623       O624   2.434       .  S
Zr623       O625   2.437       .  S
Zr623       O629   2.367       .  S
Zr623       O630   2.386   1_565  S
Zr623       O653   2.378   1_565  S
Zr623       O655   2.369       .  S
O624        H667   0.990       .  S
O625        H666   0.990       .  S
O625        H670   0.990       .  S
Zr626       O627   2.435       .  S
Zr626       O628   2.435       .  S
Zr626       O654   2.368       .  S
Zr626       O656   2.375   1_565  S
O627        H668   0.990       .  S
O627        H671   0.990       .  S
O628        H661   0.990       .  S
O629       Zr649   2.389       .  S
O630       Zr650   2.390       .  S
O630        H657   0.966       .  S
O631       Zr643   2.455       .  S
O631        C633   1.290       .  A
O632       Zr650   2.428       .  S
O632        C633   1.286       .  A
C633        C696   1.482       .  S
O634       Zr646   2.444   1_565  S
O634        C636   1.288       .  A
O635        C636   1.289       .  A
C636        C782   1.480       .  S
O637       Zr646   2.468       .  S
O637        C639   1.294       .  A
O638        C639   1.281       .  A
C639        C677   1.475       .  S
O640       Zr643   2.420   1_565  S
O640        C642   1.283       .  A
O641       Zr649   2.470       .  S
O641        C642   1.296       .  A
C642        C799   1.482       .  S
Zr643       O644   2.432       .  S
Zr643       O645   2.436       .  S
Zr643       O651   2.362       .  S
Zr643       O652   2.385   1_545  S
Zr643       O655   2.379   1_545  S
Zr643       O653   2.365       .  S
O644        H664   0.990       .  S
O644        H669   0.990       .  S
O645        H665   0.990       .  S
Zr646       O647   2.435       .  S
Zr646       O648   2.435       .  S
Zr646       O656   2.377       .  S
Zr646       O654   2.375   1_545  S
O647        H663   0.990       .  S
O648        H662   0.990       .  S
O648        H672   0.990       .  S
Zr649       O652   2.382       .  S
Zr649       O655   2.390       .  S
Zr650       O651   2.385       .  S
Zr650       O653   2.383       .  S
O651        H659   0.963       .  S
O654        H658   0.966       .  S
O655        H660   0.961       .  S
C673        C674   1.344       .  D
C673        H675   1.086       .  S
C674        H676   1.087       .  S
C677        C678   1.337       .  D
C677        H679   1.088       .  S
C678        H680   1.087       .  S
C681        C682   1.410       .  A
C681        C686   1.408       .  A
C681        H687   1.083       .  S
C682        C683   1.402       .  A
C683        C684   1.393       .  A
C683        H688   1.083       .  S
C684        C685   1.408       .  A
C684        H689   1.083       .  S
C685        C686   1.407       .  A
C686        H690   1.083       .  S
C691        C692   1.343       .  D
C691        H693   1.086       .  S
C692        H694   1.087       .  S
C695        C696   1.345       .  D
C695        H697   1.087       .  S
C696        H698   1.087       .  S
C699        C700   1.340       .  D
C699        H701   1.087       .  S
C700        H702   1.087       .  S
C703        C704   1.342       .  D
C703        H705   1.087       .  S
C704        H706   1.086       .  S
C707        C708   1.341       .  D
C707        H709   1.087       .  S
C708        H710   1.087       .  S
C711        C712   1.407       .  A
C711        C716   1.393       .  A
C711        H717   1.083       .  S
C712        C713   1.406       .  A
C713        C714   1.401       .  A
C713        H718   1.083       .  S
C714        C715   1.406       .  A
C714        H719   1.083       .  S
C715        C716   1.403       .  A
C716        H720   1.083       .  S
C721        C722   1.347       .  D
C721        H723   1.086       .  S
C722        H724   1.087       .  S
C725        C726   1.347       .  D
C725        H727   1.087       .  S
C726        H728   1.086       .  S
C729        C730   1.343       .  D
C729        H731   1.086       .  S
C730        H732   1.087       .  S
C733        C734   1.344       .  D
C733        H735   1.087       .  S
C734        H736   1.087       .  S
C737        C738   1.406       .  A
C737        C742   1.395       .  A
C737        H743   1.083       .  S
C738        C739   1.406       .  A
C739        C740   1.406       .  A
C739        H744   1.083       .  S
C740        C741   1.410       .  A
C740        H745   1.083       .  S
C741        C742   1.405       .  A
C742        H746   1.083       .  S
C747        C748   1.341       .  D
C747        H749   1.087       .  S
C748        H750   1.087       .  S
C751        C752   1.336       .  D
C751        H753   1.087       .  S
C752        H754   1.087       .  S
C755        C756   1.342       .  D
C755        H757   1.087       .  S
C756        H758   1.087       .  S
C759        C760   1.408       .  A
C759        C764   1.399       .  A
C759        H765   1.083       .  S
C760        C761   1.401       .  A
C761        C762   1.391       .  A
C761        H766   1.083       .  S
C762        C763   1.407       .  A
C762        H767   1.083       .  S
C763        C764   1.405       .  A
C764        H768   1.083       .  S
C769        C770   1.346       .  D
C769        H771   1.087       .  S
C770        H772   1.087       .  S
C773        C774   1.339       .  D
C773        H775   1.087       .  S
C774        H776   1.087       .  S
C777        C778   1.342       .  D
C777        H779   1.087       .  S
C778        H780   1.087       .  S
C781        C782   1.345       .  D
C781        H783   1.086       .  S
C782        H784   1.087       .  S
C785        C786   1.337       .  D
C785        H787   1.087       .  S
C786        H788   1.088       .  S
C789        C790   1.408       .  A
C789        C794   1.391       .  A
C789        H795   1.083       .  S
C790        C791   1.407       .  A
C791        C792   1.406       .  A
C791        H796   1.083       .  S
C792        C793   1.409       .  A
C792        H797   1.083       .  S
C793        C794   1.401       .  A
C794        H798   1.083       .  S
C799        C800   1.340       .  D
C799        H801   1.088       .  S
C800        H802   1.086       .  S
C803        C804   1.346       .  D
C803        H805   1.087       .  S
C804        H806   1.086       .  S
C807        C808   1.342       .  D
C807        H809   1.087       .  S
C808        H810   1.087       .  S
C811        C812   1.348       .  D
C811        H813   1.086       .  S
C812        H814   1.087       .  S
C815        C816   1.346       .  D
C815        H817   1.087       .  S
C816        H818   1.087       .  S
C819        C820   1.403       .  A
C819        C824   1.395       .  A
C819        H825   1.083       .  S
C820        C821   1.409       .  A
C821        C822   1.408       .  A
C821        H826   1.083       .  S
C822        C823   1.408       .  A
C822        H827   1.083       .  S
C823        C824   1.409       .  A
C824        H828   1.083       .  S
