geometry optimzed in LAMMPS
_audit_creation_date              2020-11-30 
_audit_creation_method            'lammps2cif' 
_symmetry_space_group_name_H-M    'P1' 
_symmetry_Int_Tables_number       1 
_symmetry_cell_setting            triclinic 
loop_ 
_symmetry_equiv_pos_as_xyz 
  x,y,z 
_cell_length_a                    43.84142312223093 
_cell_length_b                    43.88703621817409 
_cell_length_c                    43.781466577082185 
_cell_angle_alpha                 90.15491259712165 
_cell_angle_beta                  90.05877548491384 
_cell_angle_gamma                 89.91871446795392 
loop_ 
_atom_site_label 
_atom_site_type_symbol 
_atom_site_fract_x 
_atom_site_fract_y 
_atom_site_fract_z 
_atom_site_charge 
N1          N  0.56782486  0.34050267  0.48389891    -0.07590
N2          N  0.58642085  0.36148600  0.47309715    -0.59710
N3          N  0.56817273  0.27204971  0.51548132    -0.07270
N4          N  0.59340461  0.26027354  0.52679846    -0.61840
N5          N  0.56919081  0.27167054  0.48530453    -0.06870
N6          N  0.59541910  0.25996590  0.47606856    -0.59690
N7          N  0.56746297  0.34123273  0.51389727    -0.06550
N8          N  0.58579448  0.36274847  0.52422308    -0.62190
C9          C  0.59725069  0.37523861  0.49851672     0.94580
C10         C  0.61019069  0.25276838  0.50213897     0.94360
N11         N  0.48601966  0.27452482  0.56765213    -0.07780
N12         N  0.47545789  0.26121872  0.59252500    -0.60290
N13         N  0.51721607  0.34307057  0.56397245    -0.05900
N14         N  0.52819626  0.36480883  0.58164122    -0.61540
N15         N  0.48728891  0.34362548  0.56395586    -0.07810
N16         N  0.47710301  0.36577950  0.58162445    -0.60560
N17         N  0.51608553  0.27386091  0.56758392    -0.05540
N18         N  0.52616034  0.25998641  0.59237008    -0.61630
Mn19       Mn  0.54245215  0.30714662  0.54047165     1.18440
C20         C  0.50064757  0.25171386  0.60765132     0.96670
C21         C  0.50290692  0.37883850  0.59223306     0.97330
N22         N  0.51676544  0.27084227  0.43222094    -0.07830
N23         N  0.52623410  0.25703766  0.40702914    -0.64140
N24         N  0.48791448  0.34051167  0.43335124    -0.06630
N25         N  0.47773362  0.36244368  0.41549314    -0.64810
N26         N  0.51785681  0.34003492  0.43343765    -0.07330
N27         N  0.52882990  0.36160317  0.41567950    -0.64400
N28         N  0.48667936  0.27126857  0.43281937    -0.06230
N29         N  0.47563467  0.25772670  0.40828783    -0.65090
Mn30       Mn  0.54320441  0.30527169  0.45838173     1.10660
C31         C  0.50032194  0.24870754  0.39228175     0.97890
C32         C  0.50353284  0.37543075  0.40487338     0.97960
N33         N  0.43768110  0.34317912  0.51329035    -0.07340
N34         N  0.42052543  0.36576291  0.52327014    -0.62720
N35         N  0.43494997  0.27304852  0.48488597    -0.06660
N36         N  0.41067284  0.25841574  0.47472989    -0.59450
N37         N  0.43458310  0.27410337  0.51497421    -0.07970
N38         N  0.40993966  0.26044310  0.52542154    -0.62280
N39         N  0.43774201  0.34237618  0.48331527    -0.06960
N40         N  0.42059575  0.36439145  0.47211285    -0.59470
Mn41       Mn  0.46101776  0.30851816  0.54028124     1.20190
Mn42       Mn  0.46147721  0.30641039  0.45830155     1.10090
Cl43       Cl  0.50206683  0.30580140  0.49935253    -0.87440
C44         C  0.41027066  0.37881034  0.49733502     0.94890
C45         C  0.39526248  0.25027173  0.50021614     0.94690
N46         N  0.57058568  0.50653023  0.34479898    -0.07590
N47         N  0.58856251  0.51709994  0.36656526    -0.59710
N48         N  0.57188084  0.47512506  0.27562226    -0.07270
N49         N  0.59602873  0.46366839  0.26180982    -0.61840
N50         N  0.57316806  0.50516601  0.27554655    -0.06870
N51         N  0.59858952  0.51421651  0.26205693    -0.59690
N52         N  0.57014696  0.47660087  0.34516399    -0.06550
N53         N  0.58778644  0.46608248  0.36717206    -0.62190
C54         C  0.59889254  0.49159151  0.38037818     0.94580
C55         C  0.61255911  0.48812336  0.25310463     0.94360
N56         N  0.48980190  0.42258746  0.27693686    -0.07780
N57         N  0.47989468  0.39678646  0.26474102    -0.60290
N58         N  0.51944463  0.42686141  0.34602329    -0.05900
N59         N  0.52972834  0.40912515  0.36803152    -0.61540
N60         N  0.48949404  0.42720538  0.34592037    -0.07810
N61         N  0.47862623  0.40974025  0.36778631    -0.60560
N62         N  0.51986602  0.42318875  0.27657499    -0.05540
N63         N  0.53050685  0.39809120  0.26377210    -0.61630
Mn64       Mn  0.54559440  0.45024993  0.31046065     1.18440
C65         C  0.50548185  0.38174518  0.25611102     0.96670
C66         C  0.50398657  0.39887178  0.38145153     0.97330
N67         N  0.52084903  0.55812779  0.27430619    -0.07830
N68         N  0.53047448  0.58353371  0.26124066    -0.64140
N69         N  0.49060200  0.55768075  0.34341308    -0.06630
N70         N  0.48009414  0.57602401  0.36495768    -0.64810
N71         N  0.52058239  0.55744332  0.34363661    -0.07330
N72         N  0.53115275  0.57558538  0.36527691    -0.64400
N73         N  0.49075551  0.55709318  0.27359711    -0.06230
N74         N  0.47992820  0.58134059  0.25960866    -0.65090
Mn75       Mn  0.54666315  0.53217501  0.30917662     1.10660
C76         C  0.50473723  0.59779266  0.25181181     0.97890
C77         C  0.50565549  0.58683547  0.37846245     0.97960
N78         N  0.43946781  0.47775629  0.34450717    -0.07340
N79         N  0.42116077  0.46789174  0.36623915    -0.62720
N80         N  0.43766939  0.50577082  0.27483293    -0.06660
N81         N  0.41187664  0.51508273  0.26209749    -0.59450
N82         N  0.43874221  0.47571559  0.27482346    -0.07970
N83         N  0.41416231  0.46454663  0.26162597    -0.62280
N84         N  0.43979373  0.50767876  0.34403977    -0.06960
N85         N  0.42172232  0.51890478  0.36537885    -0.59470
Mn86       Mn  0.46411636  0.45065300  0.31016764     1.20190
Mn87       Mn  0.46448441  0.53237638  0.30858694     1.10090
Cl88       Cl  0.50522639  0.49136192  0.30898523    -0.87440
C89         C  0.41047632  0.49380958  0.37911355     0.94890
C90         C  0.39744002  0.48913212  0.25359883     0.94690
N91         N  0.52125376  0.64538153  0.43120700    -0.07590
N92         N  0.53154046  0.62355957  0.41311302    -0.59710
N93         N  0.49179569  0.71507603  0.42878794    -0.07270
N94         N  0.48187973  0.72851870  0.40363085    -0.61840
N95         N  0.52189562  0.71477412  0.42909700    -0.06870
N96         N  0.53256900  0.72820778  0.40438537    -0.59690
N97         N  0.49129088  0.64582524  0.43109751    -0.06550
N98         N  0.48048058  0.62428225  0.41297380    -0.62190
C99         C  0.50585320  0.61050653  0.40210803     0.94580
C100        C  0.50751111  0.73711420  0.38871536     0.94360
N101        N  0.44031949  0.71598564  0.51234423    -0.07780
N102        N  0.41591308  0.73004691  0.52309487    -0.60290
N103        N  0.44177741  0.64667393  0.48202124    -0.05900
N104        N  0.42379001  0.62501318  0.47148080    -0.61540
N105        N  0.44204498  0.64668925  0.51203027    -0.07810
N106        N  0.42418130  0.62500912  0.52263583    -0.60560
N107        N  0.43961098  0.71565122  0.48218590    -0.05540
N108        N  0.41449438  0.72921130  0.47240270    -0.61630
Mn109      Mn  0.46580439  0.68128032  0.45575397     1.18440
C110        C  0.39997685  0.73860307  0.49804625     0.96670
C111        C  0.41321581  0.61164436  0.49706787     0.97330
N112        N  0.57411325  0.71489386  0.48100658    -0.07830
N113        N  0.59861973  0.72808676  0.46972482    -0.64140
N114        N  0.57229964  0.64598498  0.51187394    -0.06630
N115        N  0.58967684  0.62395932  0.52270946    -0.64810
N116        N  0.57194734  0.64540739  0.48187456    -0.07330
N117        N  0.58920714  0.62296325  0.47156664    -0.64400
N118        N  0.57527026  0.71504198  0.51113708    -0.06230
N119        N  0.60098412  0.72793003  0.52039976    -0.65090
Mn120      Mn  0.54755159  0.68043012  0.45559548     1.10660
C121        C  0.61526713  0.73643956  0.49434924     0.97890
C122        C  0.59987207  0.60974579  0.49732597     0.97960
N123        N  0.49279027  0.64651743  0.56228814    -0.07340
N124        N  0.48239019  0.62472344  0.58012300    -0.62720
N125        N  0.52281437  0.71590894  0.56445640    -0.06660
N126        N  0.53336864  0.72914063  0.58946109    -0.59450
N127        N  0.49270698  0.71546761  0.56512230    -0.07970
N128        N  0.48278535  0.72810256  0.59074262    -0.62280
N129        N  0.52275107  0.64666450  0.56233689    -0.06960
N130        N  0.53347676  0.62492883  0.58015166    -0.59470
Mn131      Mn  0.46665980  0.68156093  0.53816953     1.20190
Mn132      Mn  0.54856351  0.68144576  0.53769947     1.10090
Cl133      Cl  0.50714156  0.68190412  0.49680343    -0.87440
C134        C  0.50802323  0.61138968  0.59086122     0.94890
C135        C  0.50827411  0.73703916  0.60571936     0.94690
N136        N  0.65769270  0.42546358  0.51330659    -0.07590
N137        N  0.63555894  0.40814211  0.52391856    -0.59710
N138        N  0.72668681  0.42366996  0.48270884    -0.07270
N139        N  0.73977181  0.39892781  0.47163998    -0.61840
N140        N  0.72699150  0.42298437  0.51286149    -0.06870
N141        N  0.74028517  0.39755734  0.52226630    -0.59690
N142        N  0.65738859  0.42569025  0.48328784    -0.06550
N143        N  0.63507818  0.40842107  0.47277055    -0.62190
C144        C  0.62161491  0.39786248  0.49838767     0.94580
C145        C  0.74849226  0.38271770  0.49630467     0.94360
N146        N  0.72702190  0.50610155  0.43132573    -0.07780
N147        N  0.73974903  0.51680702  0.40625958    -0.60290
N148        N  0.65731836  0.47618750  0.43287013    -0.05900
N149        N  0.63549960  0.46581389  0.41488291    -0.61540
N150        N  0.65764729  0.50611249  0.43278676    -0.07810
N151        N  0.63601399  0.51684077  0.41480122    -0.60560
N152        N  0.72642150  0.47602102  0.43042873    -0.05540
N153        N  0.73846103  0.46623354  0.40450280    -0.61630
Mn154      Mn  0.69231913  0.45009328  0.45709373     1.18440
C155        C  0.74674284  0.49186206  0.38957208     0.96670
C156        C  0.62234088  0.49144323  0.40401724     0.97330
N157        N  0.72694656  0.47603133  0.56616621    -0.07830
N158        N  0.74029256  0.46704891  0.59178512    -0.64140
N159        N  0.65750082  0.50554358  0.56332170    -0.06630
N160        N  0.63584293  0.51635210  0.58118852    -0.64810
N161        N  0.65771578  0.47561821  0.56383534    -0.07330
N162        N  0.63610941  0.46532891  0.58206560    -0.64400
N163        N  0.72687694  0.50607290  0.56489800    -0.06230
N164        N  0.74055902  0.51760630  0.58908682    -0.65090
Mn165      Mn  0.69285009  0.44959075  0.53943832     1.10660
C166        C  0.74913355  0.49323923  0.60573598     0.97890
C167        C  0.62262151  0.49103685  0.59248705     0.97960
N168        N  0.65743960  0.55613865  0.48305548    -0.07340
N169        N  0.63617027  0.57446286  0.47225771    -0.62720
N170        N  0.72664406  0.55763085  0.51385439    -0.06660
N171        N  0.73949409  0.58236653  0.52514078    -0.59450
N172        N  0.72650464  0.55861453  0.48375332    -0.07970
N173        N  0.73890141  0.58442090  0.47442064    -0.62280
N174        N  0.65716941  0.55607201  0.51303921    -0.06960
N175        N  0.63568818  0.57448372  0.52341024    -0.59470
Mn176      Mn  0.69262320  0.53191315  0.45748134     1.20190
Mn177      Mn  0.69231034  0.53143218  0.53895982     1.10090
Cl178      Cl  0.69317387  0.49071141  0.49824236    -0.87440
C179        C  0.62270031  0.58552438  0.49767611     0.94890
C180        C  0.74700766  0.59903595  0.50046524     0.94690
N181        N  0.44098356  0.51147203  0.65003147    -0.07590
N182        N  0.42361023  0.52199037  0.62780021    -0.59710
N183        N  0.43781864  0.48284033  0.72006093    -0.07270
N184        N  0.41275242  0.47343682  0.73382094    -0.61840
N185        N  0.43842442  0.51285820  0.71933321    -0.06870
N186        N  0.41366356  0.52397484  0.73237805    -0.59690
N187        N  0.44025300  0.48158151  0.65059080    -0.06550
N188        N  0.42243272  0.47098084  0.62873874    -0.62190
C189        C  0.41244002  0.49644115  0.61466071     0.94580
C190        C  0.39784912  0.49929596  0.74177351     0.94360
N191        N  0.51830478  0.42749791  0.72107531    -0.07780
N192        N  0.52696419  0.40159779  0.73393326    -0.60290
N193        N  0.48906134  0.43043462  0.65166312    -0.05900
N194        N  0.47809858  0.41329639  0.62945597    -0.61540
N195        N  0.51899527  0.42955584  0.65181784    -0.07810
N196        N  0.52918632  0.41179014  0.62974400    -0.60560
N197        N  0.48827839  0.42949033  0.72123702    -0.05540
N198        N  0.47646681  0.40534393  0.73454446    -0.61630
Mn199      Mn  0.46362067  0.45584620  0.68631292     1.18440
C200        C  0.50064889  0.38803218  0.74264128     0.96670
C201        C  0.50340966  0.40205505  0.61596058     0.97330
N202        N  0.49193550  0.56361743  0.71899414    -0.07830
N203        N  0.48199610  0.58913624  0.73152859    -0.64140
N204        N  0.52247786  0.55972404  0.65020103    -0.06630
N205        N  0.53337659  0.57716702  0.62824710    -0.64810
N206        N  0.49251446  0.56017058  0.64992449    -0.07330
N207        N  0.48229566  0.57782739  0.62786764    -0.64400
N208        N  0.52202422  0.56288122  0.71962019    -0.06230
N209        N  0.53257823  0.58790760  0.73275015    -0.65090
Mn210      Mn  0.46572445  0.53729617  0.68495858     1.10660
C211        C  0.50739383  0.60412926  0.74042277     0.97890
C212        C  0.50799088  0.58804784  0.61447227     0.97960
N213        N  0.57071510  0.47800826  0.65192746    -0.07340
N214        N  0.58818426  0.46667556  0.63013203    -0.62720
N215        N  0.57314187  0.50874724  0.72086964    -0.06660
N216        N  0.59853259  0.51797835  0.73436178    -0.59450
N217        N  0.57166735  0.47869446  0.72141864    -0.07970
N218        N  0.59580844  0.46742968  0.73542765    -0.62280
N219        N  0.57141710  0.50792992  0.65152326    -0.06960
N220        N  0.58932770  0.51768749  0.62946043    -0.59470
Mn221      Mn  0.54526150  0.45315304  0.68698813     1.20190
Mn222      Mn  0.54765797  0.53516864  0.68598687     1.10090
Cl223      Cl  0.50559109  0.49540383  0.68674503    -0.87440
C224        C  0.59941103  0.49172393  0.61627747     0.94890
C225        C  0.61236471  0.49203225  0.74377326     0.94690
N226        N  0.35182471  0.43088833  0.48187940    -0.07590
N227        N  0.37342395  0.41277897  0.47128787    -0.59710
N228        N  0.28313050  0.43009739  0.51328305    -0.07270
N229        N  0.27061271  0.40530628  0.52464079    -0.61840
N230        N  0.28281575  0.42894998  0.48315910    -0.06870
N231        N  0.27047236  0.40298315  0.47400967    -0.59690
N232        N  0.35235991  0.43152142  0.51187267    -0.06550
N233        N  0.37426216  0.41390107  0.52245298    -0.62190
C234        C  0.38725284  0.40262105  0.49690854     0.94580
C235        C  0.26286219  0.38836484  0.50012261     0.94360
N236        N  0.28446849  0.51191472  0.56557655    -0.07780
N237        N  0.27118909  0.52167804  0.59092645    -0.60290
N238        N  0.35367024  0.48161330  0.56239026    -0.05900
N239        N  0.37549426  0.47097362  0.58019969    -0.61540
N240        N  0.35373732  0.51151646  0.56254281    -0.07810
N241        N  0.37562800  0.52201269  0.58034772    -0.60560
N242        N  0.28439607  0.48189800  0.56490988    -0.05540
N243        N  0.27110137  0.47112880  0.58957211    -0.61630
Mn244      Mn  0.31806438  0.45609067  0.53828125     1.18440
C245        C  0.26253708  0.49594931  0.60566618     0.96670
C246        C  0.38906650  0.49645763  0.59097769     0.97330
N247        N  0.28184742  0.48186345  0.43080051    -0.07830
N248        N  0.26676991  0.47257608  0.40630032    -0.64140
N249        N  0.35203106  0.51041703  0.43142051    -0.06630
N250        N  0.37395134  0.52041730  0.41339953    -0.64810
N251        N  0.35133752  0.48049601  0.43129041    -0.07330
N252        N  0.37279032  0.46940615  0.41329925    -0.64400
N253        N  0.28250026  0.51189680  0.43152378    -0.06230
N254        N  0.26779395  0.52313049  0.40785644    -0.65090
Mn255      Mn  0.31647080  0.45518095  0.45632983     1.10660
C256        C  0.25783951  0.49860270  0.39219208     0.97890
C257        C  0.38675142  0.49455323  0.40248305     0.97960
N258        N  0.35361052  0.56101059  0.51220655    -0.07340
N259        N  0.37582324  0.57834045  0.52270516    -0.62720
N260        N  0.28425926  0.56384765  0.48274745    -0.06660
N261        N  0.27058826  0.58876268  0.47271710    -0.59450
N262        N  0.28441300  0.56358105  0.51284820    -0.07970
N263        N  0.27097336  0.58829541  0.52341150    -0.62280
N264        N  0.35354262  0.56079100  0.48220217    -0.06960
N265        N  0.37567767  0.57806062  0.47153297    -0.59470
Mn266      Mn  0.31861299  0.53738012  0.53858321     1.20190
Mn267      Mn  0.31783665  0.53706318  0.45659771     1.10090
Cl268      Cl  0.31715472  0.49642510  0.49744005    -0.87440
C269        C  0.38941979  0.58858782  0.49708837     0.94890
C270        C  0.26199647  0.60380291  0.49833926     0.94690
N271        N  0.85347861  0.55918202  0.01440178    -0.07590
N272        N  0.87524235  0.57691167  0.02521999    -0.59710
N273        N  0.78440260  0.56315719  0.98403316    -0.07270
N274        N  0.77128722  0.58836887  0.97398673    -0.61840
N275        N  0.78422359  0.56279397  0.01416803    -0.06870
N276        N  0.77085568  0.58766136  0.02474405    -0.59690
N277        N  0.85356970  0.55935449  0.98440032    -0.06550
N278        N  0.87541011  0.57721577  0.97406740    -0.62190
C279        C  0.88879417  0.58776284  0.99979774     0.94580
C280        C  0.76242242  0.60337146  0.99953758     0.94360
N281        N  0.78231911  0.48089132  0.93120595    -0.07780
N282        N  0.76843504  0.47122756  0.90618927    -0.60290
N283        N  0.85247245  0.50904754  0.93396275    -0.05900
N284        N  0.87501788  0.51914444  0.91690033    -0.61540
N285        N  0.85162200  0.47913103  0.93349088    -0.07810
N286        N  0.87361697  0.46812482  0.91612152    -0.60560
N287        N  0.78339330  0.51095192  0.93135452    -0.05540
N288        N  0.77043173  0.52176200  0.90639160    -0.61630
Mn289      Mn  0.81808030  0.53589973  0.95811882     1.18440
C290        C  0.76071722  0.49690895  0.89090872     0.96670
C291        C  0.88803232  0.49336993  0.90617377     0.97330
N292        N  0.78293236  0.51020717  0.06581546    -0.07830
N293        N  0.76873604  0.52080922  0.09021023    -0.64140
N294        N  0.85186691  0.47865743  0.06407474    -0.06630
N295        N  0.87320599  0.46746083  0.08213787    -0.64810
N296        N  0.85239974  0.50857933  0.06445646    -0.07330
N297        N  0.87415784  0.51847289  0.08280452    -0.64400
N298        N  0.78252663  0.48015706  0.06583657    -0.06230
N299        N  0.76811704  0.47015075  0.09033058    -0.65090
Mn300      Mn  0.81789366  0.53546044  0.04001165     1.10660
C301        C  0.75915123  0.49568578  0.10523604     0.97890
C302        C  0.88699971  0.49256748  0.09344036     0.97960
N303        N  0.85069261  0.42876244  0.98305702    -0.07340
N304        N  0.87243698  0.41095974  0.97223743    -0.62720
N305        N  0.78160473  0.42844953  0.01336298    -0.06660
N306        N  0.76780759  0.40415362  0.02419330    -0.59450
N307        N  0.78137550  0.42781452  0.98324168    -0.07970
N308        N  0.76747318  0.40280014  0.97353807    -0.62280
N309        N  0.85097298  0.42880142  0.01305916    -0.06960
N310        N  0.87290119  0.41095612  0.02339350    -0.59470
Mn311      Mn  0.81599324  0.45382914  0.95736325     1.20190
Mn312      Mn  0.81639578  0.45375243  0.03933501     1.10090
Cl313      Cl  0.81643117  0.49475888  0.99870320    -0.87440
C314        C  0.88614353  0.40021505  0.99766037     0.94890
C315        C  0.75863966  0.38830828  0.99938382     0.94690
N316        N  0.02047913  0.42732137  0.84535931    -0.07590
N317        N  0.03103087  0.40903189  0.86682610    -0.59710
N318        N  0.98932869  0.42815492  0.77607307    -0.07270
N319        N  0.97767637  0.40418612  0.76222103    -0.61840
N320        N  0.01941588  0.42651976  0.77605221    -0.06870
N321        N  0.02822743  0.40084823  0.76268633    -0.59690
N322        N  0.99052078  0.42788092  0.84573744    -0.06550
N323        N  0.97996561  0.40998365  0.86743071    -0.62190
C324        C  0.00546743  0.39859196  0.88044750     0.94580
C325        C  0.00194420  0.38720946  0.75377369     0.94360
N326        N  0.93717770  0.50973747  0.77882330    -0.07780
N327        N  0.91223920  0.52015636  0.76539784    -0.60290
N328        N  0.94036276  0.47842486  0.84769174    -0.05900
N329        N  0.92246143  0.46769892  0.86933983    -0.61540
N330        N  0.94041141  0.50833037  0.84812026    -0.07810
N331        N  0.92270502  0.51874384  0.87008247    -0.60560
N332        N  0.93720750  0.47970908  0.77844069    -0.05540
N333        N  0.91230093  0.46956249  0.76489616    -0.61630
Mn334      Mn  0.96415961  0.45327800  0.81165671     1.18440
C335        C  0.89694747  0.49487443  0.75634988     0.96670
C336        C  0.91190403  0.49316666  0.88317367     0.97330
N337        N  0.07255550  0.47938372  0.77690209    -0.07830
N338        N  0.09826350  0.47061599  0.76362642    -0.64140
N339        N  0.07046420  0.50738026  0.84702266    -0.06630
N340        N  0.08797243  0.51746322  0.86938558    -0.64810
N341        N  0.07071016  0.47745062  0.84618985    -0.07330
N342        N  0.08833328  0.46644923  0.86799408    -0.64400
N343        N  0.07124378  0.50942985  0.77755018    -0.06230
N344        N  0.09557528  0.52107721  0.76446649    -0.65090
Mn345      Mn  0.04623490  0.45223852  0.81060598     1.10660
C346        C  0.11243623  0.49692570  0.75575026     0.97890
C347        C  0.09873840  0.49167946  0.88230900     0.97960
N348        N  0.99037740  0.55809334  0.84881695    -0.07340
N349        N  0.98004755  0.57572352  0.87094991    -0.62720
N350        N  0.01965406  0.56145506  0.77933813    -0.06660
N351        N  0.02976732  0.58647089  0.76604021    -0.59450
N352        N  0.98959277  0.56147507  0.77963508    -0.07970
N353        N  0.97914592  0.58653528  0.76676065    -0.62280
N354        N  0.02031231  0.55779102  0.84871444    -0.06960
N355        N  0.03113932  0.57522325  0.87076155    -0.59470
Mn356      Mn  0.96413314  0.53467797  0.81341738     1.20190
Mn357      Mn  0.04569784  0.53424750  0.81281684     1.10090
Cl358      Cl  0.00511543  0.49356018  0.81111214    -0.87440
C359        C  0.00574239  0.58599385  0.88449333     0.94890
C360        C  0.00427537  0.60194536  0.75793145     0.94690
N361        N  0.15671917  0.42498414  0.01575966    -0.07590
N362        N  0.13506852  0.40686809  0.02611811    -0.59710
N363        N  0.22602000  0.42341266  0.98493548    -0.07270
N364        N  0.23908306  0.39904306  0.97319674    -0.61840
N365        N  0.22586502  0.42175270  0.01502717    -0.06870
N366        N  0.23831198  0.39566608  0.02380731    -0.59690
N367        N  0.15650322  0.42544231  0.98576571    -0.06550
N368        N  0.13474158  0.40767793  0.97498329    -0.62190
C369        C  0.12148678  0.39646526  0.00039465     0.94580
C370        C  0.24686660  0.38180167  0.99745351     0.94360
N371        N  0.22578346  0.50471693  0.93236799    -0.07780
N372        N  0.23788140  0.51409008  0.90637606    -0.60290
N373        N  0.15640625  0.47582504  0.93557822    -0.05900
N374        N  0.13477895  0.46555512  0.91727768    -0.61540
N375        N  0.15674576  0.50573582  0.93563967    -0.07810
N376        N  0.13535654  0.51658368  0.91744885    -0.60560
N377        N  0.22582374  0.47468905  0.93325168    -0.05540
N378        N  0.23832847  0.46353618  0.90822572    -0.61630
Mn379      Mn  0.19151108  0.44969359  0.95979159     1.18440
C380        C  0.24571406  0.48816369  0.89145047     0.96670
C381        C  0.12175976  0.49125999  0.90638953     0.97330
N382        N  0.22716559  0.47460859  0.06791326    -0.07830
N383        N  0.24078748  0.46463851  0.09295606    -0.64140
N384        N  0.15826598  0.50551120  0.06619100    -0.06630
N385        N  0.13633832  0.51647240  0.08368696    -0.64810
N386        N  0.15784568  0.47556929  0.06617482    -0.07330
N387        N  0.13559432  0.46544600  0.08365145    -0.64400
N388        N  0.22744304  0.50469572  0.06755162    -0.06230
N389        N  0.24114002  0.51517870  0.09224720    -0.65090
Mn390      Mn  0.19233066  0.44883841  0.04166316     1.10660
C391        C  0.24976283  0.49017134  0.10794769     0.97890
C392        C  0.12235675  0.49121419  0.09419722     0.97960
N393        N  0.15799481  0.55566370  0.98626199    -0.07340
N394        N  0.13594318  0.57335971  0.97600406    -0.62720
N395        N  0.22746307  0.55737337  0.01541893    -0.06660
N396        N  0.24123839  0.58242403  0.02511994    -0.59450
N397        N  0.22752529  0.55653855  0.98528555    -0.07970
N398        N  0.24169901  0.58066633  0.97441581    -0.62280
N399        N  0.15829363  0.55562500  0.01624968    -0.06960
N400        N  0.13649100  0.57328293  0.02716405    -0.59470
Mn401      Mn  0.19242773  0.53097333  0.95967990     1.20190
Mn402      Mn  0.19331467  0.53110087  0.04169205     1.10090
Cl403      Cl  0.19340234  0.49014030  0.00079745    -0.87440
C404        C  0.12269592  0.58395243  0.00177629     0.94890
C405        C  0.25051587  0.59667382  0.99934450     0.94690
N406        N  0.01877234  0.55669671  0.15372052    -0.07590
N407        N  0.02924776  0.57485258  0.13221189    -0.59710
N408        N  0.98886851  0.55683132  0.22343069    -0.07270
N409        N  0.97798012  0.58145829  0.23692092    -0.61840
N410        N  0.01899224  0.55773524  0.22293246    -0.06870
N411        N  0.02860853  0.58327073  0.23580218    -0.59690
N412        N  0.98879132  0.55673552  0.15385506    -0.06550
N413        N  0.97817569  0.57500980  0.13238489    -0.62190
C414        C  0.00370745  0.58592417  0.11902851     0.94580
C415        C  0.00284294  0.59790722  0.24449702     0.94360
N416        N  0.93808941  0.47457316  0.22232933    -0.07780
N417        N  0.91389865  0.46313166  0.23589159    -0.60290
N418        N  0.93870570  0.50609597  0.15308124    -0.05900
N419        N  0.92099613  0.51709036  0.13137087    -0.61540
N420        N  0.93866085  0.47616598  0.15255650    -0.07810
N421        N  0.92087448  0.46606621  0.13038698    -0.60560
N422        N  0.93665264  0.50460543  0.22238559    -0.05540
N423        N  0.91101260  0.51366079  0.23559389    -0.61630
Mn424      Mn  0.96296552  0.53137836  0.18857562     1.18440
C425        C  0.89708584  0.48755234  0.24430225     0.96670
C426        C  0.91023400  0.49187802  0.11733959     0.97330
N427        N  0.07220309  0.50540241  0.22160559    -0.07830
N428        N  0.09786882  0.51456724  0.23470294    -0.64140
N429        N  0.06911293  0.47657366  0.15177232    -0.06630
N430        N  0.08711864  0.46605333  0.13008066    -0.64810
N431        N  0.06945274  0.50649910  0.15231103    -0.07330
N432        N  0.08775841  0.51707847  0.13090529    -0.64400
N433        N  0.07134258  0.47537137  0.22097345    -0.06230
N434        N  0.09606091  0.46408632  0.23375324    -0.65090
Mn435      Mn  0.04518756  0.53195429  0.18808181     1.10660
C436        C  0.11254756  0.48848339  0.24253002     0.97890
C437        C  0.09835164  0.49154434  0.11717774     0.97960
N438        N  0.98917089  0.42615489  0.15123385    -0.07340
N439        N  0.97843560  0.40857362  0.12926801    -0.62720
N440        N  0.02011837  0.42352786  0.22056389    -0.06660
N441        N  0.03131811  0.39922775  0.23425398    -0.59450
N442        N  0.99007705  0.42262200  0.22059267    -0.07970
N443        N  0.98064131  0.39743182  0.23413897    -0.62280
N444        N  0.01911099  0.42623252  0.15100855    -0.06960
N445        N  0.02953234  0.40863573  0.12887036    -0.59470
Mn446      Mn  0.96367287  0.44961205  0.18704065     1.20190
Mn447      Mn  0.04509901  0.45024121  0.18639356     1.10090
Cl448      Cl  0.00423939  0.49082373  0.18811626    -0.87440
C449        C  0.00387308  0.39804073  0.11545265     0.94890
C450        C  0.00658107  0.38314800  0.24303155     0.94690
N451        N  0.93826649  0.34135728  0.01209906    -0.07590
N452        N  0.92051629  0.36317543  0.02283516    -0.59710
N453        N  0.93393124  0.27253699  0.98174780    -0.07270
N454        N  0.90816306  0.26015357  0.97199606    -0.61840
N455        N  0.93473020  0.27210151  0.01186267    -0.06870
N456        N  0.90997343  0.25897147  0.02266614    -0.59690
N457        N  0.93824632  0.34147135  0.98209980    -0.06550
N458        N  0.92045320  0.36339838  0.97168677    -0.62190
C459        C  0.90979822  0.37680558  0.99738121     0.94580
C460        C  0.89350215  0.25125621  0.99772544     0.94360
N461        N  0.01782674  0.27027294  0.93067096    -0.07780
N462        N  0.02853467  0.25613266  0.90629040    -0.60290
N463        N  0.98922121  0.34016291  0.93236842    -0.05900
N464        N  0.97926207  0.36210451  0.91440756    -0.61540
N465        N  0.01919514  0.33957557  0.93275841    -0.07810
N466        N  0.03032272  0.36110968  0.91495959    -0.60560
N467        N  0.98771241  0.27102107  0.92978070    -0.05540
N468        N  0.97786971  0.25751807  0.90458129    -0.61630
Mn469      Mn  0.96195255  0.30585540  0.95610614     1.18440
C470        C  0.00350467  0.24786541  0.89024754     0.96670
C471        C  0.00511320  0.37502575  0.90390863     0.97330
N472        N  0.98587398  0.27046382  0.06418208    -0.07830
N473        N  0.97419492  0.25675110  0.08823300    -0.64140
N474        N  0.01801290  0.33892440  0.06348335    -0.06630
N475        N  0.02892406  0.36043175  0.08151101    -0.64810
N476        N  0.98808419  0.33982190  0.06292057    -0.07330
N477        N  0.97785900  0.36194013  0.08062275    -0.64400
N478        N  0.01592561  0.26972563  0.06540642    -0.06230
N479        N  0.02483416  0.25570453  0.09060945    -0.65090
Mn480      Mn  0.96156835  0.30561406  0.03795344     1.10660
C481        C  0.99858738  0.24725756  0.10452269     0.97890
C482        C  0.00360589  0.37464844  0.09180909     0.97960
N483        N  0.06906238  0.33822126  0.98411004    -0.07340
N484        N  0.08723678  0.35991946  0.97403395    -0.62720
N485        N  0.06899900  0.26846522  0.01363844    -0.06660
N486        N  0.09309551  0.25383645  0.02428710    -0.59450
N487        N  0.06964482  0.26885140  0.98350426    -0.07970
N488        N  0.09425154  0.25451236  0.97353566    -0.62280
N489        N  0.06886441  0.33783777  0.01411362    -0.06960
N490        N  0.08686522  0.35928779  0.02517623    -0.59470
Mn491      Mn  0.04424383  0.30388508  0.95743355     1.20190
Mn492      Mn  0.04325985  0.30328002  0.03946769     1.10090
Cl493      Cl  0.00275189  0.30366297  0.99764295    -0.87440
C494        C  0.09796772  0.37292348  0.99990633     0.94890
C495        C  0.10857816  0.24478113  0.99912194     0.94690
N496        N  0.94083260  0.64671568  0.98579451    -0.07590
N497        N  0.92320006  0.62492241  0.97483358    -0.59710
N498        N  0.93948076  0.71572788  0.01595129    -0.07270
N499        N  0.91393238  0.72913629  0.02499552    -0.61840
N500        N  0.94115908  0.71621240  0.98584129    -0.06870
N501        N  0.91721917  0.73033519  0.97439537    -0.59690
N502        N  0.94035535  0.64662305  0.01580418    -0.06550
N503        N  0.92242965  0.62479776  0.02598598    -0.62190
C504        C  0.91209730  0.61141780  0.00018086     0.94580
C505        C  0.90033884  0.73857134  0.99885371     0.94360
N506        N  0.02186849  0.71395861  0.06796303    -0.07780
N507        N  0.03346800  0.72744863  0.09217980    -0.60290
N508        N  0.98983740  0.64519766  0.06701820    -0.05900
N509        N  0.97875393  0.62372471  0.08491877    -0.61540
N510        N  0.01979342  0.64439444  0.06697061    -0.07810
N511        N  0.02981062  0.62237607  0.08482586    -0.60560
N512        N  0.99179964  0.71426584  0.06932695    -0.05540
N513        N  0.98289194  0.72734767  0.09512819    -0.61630
Mn514      Mn  0.96495105  0.68089889  0.04242989     1.18440
C515        C  0.00915472  0.73584462  0.10910240     0.96670
C516        C  0.00398533  0.60962049  0.09565551     0.97330
N517        N  0.99379248  0.71459311  0.93415363    -0.07830
N518        N  0.98461766  0.72856361  0.90902590    -0.64140
N519        N  0.02163973  0.64454410  0.93649742    -0.06630
N520        N  0.03183116  0.62231971  0.91892765    -0.64810
N521        N  0.99170176  0.64534938  0.93617151    -0.07330
N522        N  0.98075289  0.62368231  0.91836428    -0.64400
N523        N  0.02384316  0.71363657  0.93494362    -0.06230
N524        N  0.03518177  0.72684422  0.91047665    -0.65090
Mn525      Mn  0.96653516  0.68113050  0.96019856     1.10660
C526        C  0.01069473  0.73646533  0.89445837     0.97890
C527        C  0.00606340  0.60946508  0.90801685     0.97960
N528        N  0.07077205  0.64278542  0.01709150    -0.07340
N529        N  0.08831825  0.62073928  0.02766178    -0.62720
N530        N  0.07561237  0.71197372  0.98742608    -0.06660
N531        N  0.10151313  0.72426211  0.97806753    -0.59450
N532        N  0.07456069  0.71204325  0.01750638    -0.07970
N533        N  0.09951627  0.72453453  0.02872203    -0.62280
N534        N  0.07115240  0.64298260  0.98711241    -0.06960
N535        N  0.08883140  0.62109527  0.97649582    -0.59470
Mn536      Mn  0.04690503  0.67859396  0.04264786     1.20190
Mn537      Mn  0.04828949  0.67868508  0.96121110     1.10090
Cl538      Cl  0.00666176  0.68044175  0.00163573    -0.87440
C539        C  0.09914138  0.60734797  0.00202206     0.94890
C540        C  0.11626842  0.73223229  0.00408565     0.94690
N541        N  0.49027029  0.83870289  0.92914404    -0.07590
N542        N  0.47924111  0.85994956  0.91081744    -0.59710
N543        N  0.52334827  0.77037984  0.92931192    -0.07270
N544        N  0.53546104  0.75533081  0.90628606    -0.61840
N545        N  0.49332275  0.76907168  0.92793597    -0.06870
N546        N  0.48496236  0.75317982  0.90349768    -0.59690
N547        N  0.52022907  0.83981902  0.92966282    -0.06550
N548        N  0.53025421  0.86177263  0.91177690    -0.62190
C549        C  0.50449104  0.87420826  0.90034018     0.94580
C550        C  0.51160916  0.74425496  0.89028292     0.94360
N551        N  0.57588500  0.77396352  0.01090066    -0.07780
N552        N  0.60121753  0.76114877  0.02108394    -0.60290
N553        N  0.57059695  0.84264998  0.98030526    -0.05900
N554        N  0.58837889  0.86451656  0.96983901    -0.61540
N555        N  0.57040902  0.84283200  0.01029131    -0.07810
N556        N  0.58791241  0.86477686  0.02099007    -0.60560
N557        N  0.57539208  0.77334427  0.98081437    -0.05540
N558        N  0.60018937  0.75979778  0.97036180    -0.61630
Mn559      Mn  0.54759021  0.80625886  0.95473515     1.18440
C560        C  0.61611992  0.75186514  0.99563924     0.96670
C561        C  0.59872641  0.87819316  0.99554372     0.97330
N562        N  0.44021660  0.76807598  0.98088391    -0.07830
N563        N  0.41494603  0.75428159  0.97171900    -0.64140
N564        N  0.44026316  0.83722731  0.01047564    -0.06630
N565        N  0.42226308  0.85879308  0.02136645    -0.64810
N566        N  0.43992747  0.83729700  0.98043195    -0.07330
N567        N  0.42161291  0.85893659  0.97023330    -0.64400
N568        N  0.44166220  0.76782601  0.01103404    -0.06230
N569        N  0.41780485  0.75352850  0.02234888    -0.65090
Mn570      Mn  0.46544614  0.80287468  0.95406654     1.10660
C571        C  0.40125241  0.74487866  0.99778270     0.97890
C572        C  0.41095085  0.87219208  0.99604548     0.97960
N573        N  0.52042372  0.84117266  0.06046165    -0.07340
N574        N  0.53008329  0.86351271  0.07814687    -0.62720
N575        N  0.49402066  0.77066674  0.06365665    -0.06660
N576        N  0.48498255  0.75701611  0.08900360    -0.59450
N577        N  0.52406503  0.77209354  0.06310046    -0.07970
N578        N  0.53555117  0.75944870  0.08789003    -0.62280
N579        N  0.49051602  0.83984634  0.06064371    -0.06960
N580        N  0.47904910  0.86126784  0.07847705    -0.59470
Mn581      Mn  0.54787859  0.80715750  0.03637599     1.20190
Mn582      Mn  0.46633325  0.80341461  0.03667610     1.10090
Cl583      Cl  0.50672006  0.80397332  0.99538420    -0.87440
C584        C  0.50403627  0.87591068  0.08897563     0.94890
C585        C  0.51113242  0.74986004  0.10394031     0.94690
N586        N  0.57005966  0.00952959  0.84716174    -0.07590
N587        N  0.58793502  0.01979338  0.86909711    -0.59710
N588        N  0.57313311  0.98146786  0.77706799    -0.07270
N589        N  0.59827492  0.97079963  0.76455931    -0.61840
N590        N  0.57414006  0.01150633  0.77829210    -0.06870
N591        N  0.60043436  0.02121230  0.76703298    -0.59690
N592        N  0.57021666  0.97958797  0.84647999    -0.06550
N593        N  0.58840627  0.96878024  0.86796189    -0.62190
C594        C  0.59901713  0.99417242  0.88194876     0.94580
C595        C  0.61533955  0.99551936  0.75835173     0.94360
N596        N  0.49150534  0.92966919  0.77276789    -0.07780
N597        N  0.48162235  0.90543528  0.75791654    -0.60290
N598        N  0.51985979  0.92851812  0.84346023    -0.05900
N599        N  0.53010251  0.90995596  0.86482019    -0.61540
N600        N  0.48990532  0.92800079  0.84253191    -0.07810
N601        N  0.47906958  0.90908339  0.86329438    -0.60560
N602        N  0.52157313  0.92946896  0.77379507    -0.05540
N603        N  0.53218493  0.90496371  0.75974469    -0.61630
Mn604      Mn  0.54643042  0.95450088  0.80993198     1.18440
C605        C  0.50711116  0.89011820  0.74961482     0.96670
C606        C  0.50442788  0.89817323  0.87708425     0.97330
N607        N  0.52067346  0.06386475  0.77880245    -0.07830
N608        N  0.53003649  0.08966802  0.76632874    -0.64140
N609        N  0.48953908  0.05863745  0.84731200    -0.06630
N610        N  0.47837613  0.07567127  0.86950348    -0.64810
N611        N  0.51948231  0.05907219  0.84778741    -0.07330
N612        N  0.52946007  0.07634849  0.87032865    -0.64400
N613        N  0.49063433  0.06245811  0.77785452    -0.06230
N614        N  0.47951448  0.08676258  0.76418959    -0.65090
Mn615      Mn  0.54640066  0.03636739  0.81253782     1.10660
C616        C  0.50414771  0.10366282  0.75678068     0.97890
C617        C  0.50356918  0.08628791  0.88370831     0.97960
N618        N  0.43950644  0.97830476  0.84352632    -0.07340
N619        N  0.42170059  0.96702036  0.86498468    -0.62720
N620        N  0.43912347  0.01097364  0.77523590    -0.06660
N621        N  0.41527057  0.02228905  0.76084824    -0.59450
N622        N  0.43872001  0.98099651  0.77389496    -0.07970
N623        N  0.41443512  0.97176192  0.75847726    -0.62280
N624        N  0.43960419  0.00821386  0.84470167    -0.06960
N625        N  0.42184781  0.01803432  0.86694820    -0.59470
Mn626      Mn  0.46457561  0.95387750  0.80778258     1.20190
Mn627      Mn  0.46448141  0.03533689  0.81097947     1.10090
Cl628      Cl  0.50550812  0.99502581  0.80974746    -0.87440
C629        C  0.41105762  0.99210092  0.87944749     0.94890
C630        C  0.40005618  0.99781015  0.75001899     0.94690
N631        N  0.51725411  0.14538869  0.93552399    -0.07590
N632        N  0.52826031  0.12343387  0.91813443    -0.59710
N633        N  0.48619905  0.21439989  0.93253967    -0.07270
N634        N  0.47601156  0.22774561  0.90745505    -0.61840
N635        N  0.51627827  0.21446056  0.93270921    -0.06870
N636        N  0.52663713  0.22770346  0.90775176    -0.59690
N637        N  0.48732493  0.14515054  0.93512852    -0.06550
N638        N  0.47716199  0.12297685  0.91749516    -0.62190
C639        C  0.50297554  0.10959812  0.90730986     0.94580
C640        C  0.50145097  0.23631787  0.89216956     0.94360
N641        N  0.43319660  0.21299904  0.01510425    -0.07780
N642        N  0.40764650  0.22547111  0.02515312    -0.60290
N643        N  0.43738269  0.14444527  0.98491621    -0.05900
N644        N  0.42027614  0.12229043  0.97397024    -0.61540
N645        N  0.43744190  0.14404866  0.01491375    -0.07810
N646        N  0.42024083  0.12166607  0.02513551    -0.60560
N647        N  0.43372045  0.21358708  0.98497930    -0.05540
N648        N  0.40866454  0.22667619  0.97449566    -0.61630
Mn649      Mn  0.46085192  0.17990380  0.95912965     1.18440
C650        C  0.39253603  0.23434610  0.99972992     0.96670
C651        C  0.40997142  0.10825341  0.99930251     0.97330
N652        N  0.56792369  0.21567087  0.98522605    -0.07830
N653        N  0.59245127  0.22907153  0.97423954    -0.64140
N654        N  0.56755276  0.14664373  0.01583588    -0.06630
N655        N  0.58560158  0.12495725  0.02630552    -0.64810
N656        N  0.56733081  0.14650510  0.98582803    -0.07330
N657        N  0.58522077  0.12477960  0.97515099    -0.64400
N658        N  0.56859563  0.21591104  0.01537080    -0.06230
N659        N  0.59383308  0.22946057  0.02490699    -0.65090
Mn660      Mn  0.54241717  0.18088862  0.95964488     1.10660
C661        C  0.60853563  0.23779669  0.99901018     0.97890
C662        C  0.59623375  0.11147647  0.00064219     0.97960
N663        N  0.48745294  0.14526138  0.06622290    -0.07340
N664        N  0.47734998  0.12353177  0.08438858    -0.62720
N665        N  0.51558374  0.21528333  0.06813988    -0.06660
N666        N  0.52490413  0.22901694  0.09341771    -0.59450
N667        N  0.48547079  0.21461099  0.06742106    -0.07970
N668        N  0.47423406  0.22800619  0.09196693    -0.62280
N669        N  0.51741919  0.14601209  0.06654966    -0.06960
N670        N  0.52838419  0.12478556  0.08489953    -0.59470
Mn671      Mn  0.46062966  0.17955674  0.04119550     1.20190
Mn672      Mn  0.54264735  0.18143992  0.04183163     1.10090
Cl673      Cl  0.50162670  0.18114754  0.00049349    -0.87440
C674        C  0.50312159  0.11087118  0.09568914     0.94890
C675        C  0.49891204  0.23728000  0.10796829     0.94690
N676        N  0.48825403  0.92661846  0.14895105    -0.07590
N677        N  0.47777851  0.90927216  0.12660550    -0.59710
N678        N  0.51826874  0.92185630  0.21796620    -0.07270
N679        N  0.52801344  0.89632863  0.23069475    -0.61840
N680        N  0.48824166  0.92291451  0.21857791    -0.06870
N681        N  0.47737733  0.89839387  0.23203264    -0.59690
N682        N  0.51818382  0.92677671  0.14886234    -0.06550
N683        N  0.52886961  0.90966297  0.12654266    -0.62190
C684        C  0.50343734  0.89913035  0.11278015     0.94580
C685        C  0.50229910  0.88197553  0.23986979     0.94360
N686        N  0.57080592  0.00341949  0.22141334    -0.07780
N687        N  0.59563996  0.01224382  0.23618725    -0.60290
N688        N  0.56831663  0.97660166  0.15079879    -0.05900
N689        N  0.58590921  0.96672674  0.12845513    -0.61540
N690        N  0.56843971  0.00651087  0.15193569    -0.07810
N691        N  0.58613383  0.01773871  0.13038829    -0.60560
N692        N  0.57003932  0.97342164  0.22005225    -0.05540
N693        N  0.59411775  0.96173928  0.23376166    -0.61630
Mn694      Mn  0.54398029  0.94944286  0.18474484     1.18440
C695        C  0.60994573  0.98596649  0.24415449     0.96670
C696        C  0.59662216  0.99263645  0.11588399     0.97330
N697        N  0.43657633  0.97489046  0.22028872    -0.07830
N698        N  0.41213816  0.96336354  0.23337347    -0.64140
N699        N  0.43797020  0.00687246  0.15156068    -0.06630
N700        N  0.42010003  0.01754785  0.12975976    -0.64810
N701        N  0.43836749  0.97693894  0.15089282    -0.07330
N702        N  0.42091511  0.96652365  0.12870466    -0.64400
N703        N  0.43528898  0.00493977  0.22079109    -0.06230
N704        N  0.40949437  0.01388759  0.23377424    -0.65090
Mn705      Mn  0.46262393  0.95014300  0.18506658     1.10660
C706        C  0.39532577  0.98772380  0.24198009     0.97890
C707        C  0.40988229  0.99205461  0.11566824     0.97960
N708        N  0.51840629  0.05746577  0.15378681    -0.07340
N709        N  0.52895046  0.07599476  0.13251511    -0.62720
N710        N  0.48843940  0.05747562  0.22296145    -0.06660
N711        N  0.47924686  0.08297837  0.23639358    -0.59450
N712        N  0.51854048  0.05594362  0.22355634    -0.07970
N713        N  0.52978829  0.07993935  0.23775098    -0.62280
N714        N  0.48841626  0.05748673  0.15361945    -0.06960
N715        N  0.47789393  0.07595634  0.13231347    -0.59470
Mn716      Mn  0.54437280  0.03117721  0.18809020     1.20190
Mn717      Mn  0.46214825  0.03208120  0.18765179     1.10090
Cl718      Cl  0.50326474  0.99075762  0.18700673    -0.87440
C719        C  0.50339595  0.08718151  0.11925405     0.94890
C720        C  0.50525907  0.09672305  0.24589549     0.94690
N721        N  0.35284353  0.92561296  0.98215242    -0.07590
N722        N  0.37427287  0.90745603  0.97126063    -0.60190
N723        N  0.28373321  0.92244697  0.01175216    -0.07270
N724        N  0.27191500  0.89627278  0.02092506    -0.61840
N725        N  0.28357332  0.92360374  0.98160934    -0.06870
N726        N  0.27136283  0.89855897  0.97031031    -0.59690
N727        N  0.35285632  0.92524054  0.01216855    -0.06550
N728        N  0.37435625  0.90676194  0.02238843    -0.62190
C729        C  0.38759545  0.89605505  0.99659148     0.94580
C730        C  0.26414611  0.88152567  0.99483319     0.94360
N731        N  0.28206727  0.00566550  0.06359860    -0.07780
N732        N  0.26821018  0.01672028  0.08791374    -0.60290
N733        N  0.35187942  0.97604404  0.06291594    -0.05900
N734        N  0.37370745  0.96593765  0.08100946    -0.61540
N735        N  0.35136121  0.00597664  0.06294931    -0.07810
N736        N  0.37280332  0.01695976  0.08102992    -0.60560
N737        N  0.28260569  0.97559725  0.06464215    -0.05540
N738        N  0.26925405  0.96619885  0.09003963    -0.61630
Mn739      Mn  0.31736984  0.94946227  0.03830068     1.18440
C740        C  0.26018144  0.99210961  0.10436446     0.96670
C741        C  0.38660355  0.99172127  0.09190589     0.97330
N742        N  0.28353185  0.97580534  0.92973211    -0.07830
N743        N  0.27159498  0.96515129  0.90418223    -0.64140
N744        N  0.35284126  0.00610077  0.93241073    -0.06630
N745        N  0.37436182  0.01689106  0.91444774    -0.64810
N746        N  0.35297984  0.97618625  0.93211890    -0.07330
N747        N  0.37463640  0.96586086  0.91387710    -0.64400
N748        N  0.28391811  0.00587224  0.92911337    -0.06230
N749        N  0.27267929  0.01571002  0.90288630    -0.65090
Mn750      Mn  0.31782155  0.95016301  0.95626904     1.10660
C751        C  0.26505622  0.99011608  0.88744466     0.97890
C752        C  0.38784206  0.99154616  0.90327041     0.97960
N753        N  0.35165065  0.05585193  0.01300780    -0.07340
N754        N  0.37322589  0.07363047  0.02406731    -0.62720
N755        N  0.28251882  0.05749392  0.98195436    -0.06660
N756        N  0.26853298  0.08187986  0.97129691    -0.59450
N757        N  0.28260033  0.05808055  0.01206064    -0.07970
N758        N  0.26905142  0.08315119  0.02198926    -0.62280
N759        N  0.35199831  0.05598067  0.98303596    -0.06960
N760        N  0.37386688  0.07388368  0.97290302    -0.59470
Mn761      Mn  0.31650023  0.03159819  0.03816730     1.20190
Mn762      Mn  0.31742457  0.03162465  0.95644674     1.10090
Cl763      Cl  0.31627183  0.99061800  0.99735035    -0.87440
C764        C  0.38695030  0.08446797  0.99877221     0.94890
C765        C  0.25987954  0.09775453  0.99639061     0.94690
N766        N  0.65536404  0.00888148  0.06436708    -0.07590
N767        N  0.63337097  0.01901887  0.08225287    -0.59710
N768        N  0.72449462  0.97984543  0.06776507    -0.07270
N769        N  0.73619257  0.97008890  0.09380670    -0.61840
N770        N  0.72473772  0.00989678  0.06717313    -0.06870
N771        N  0.73702838  0.02065902  0.09246462    -0.59690
N772        N  0.65554665  0.97897524  0.06374216    -0.06550
N773        N  0.63372044  0.96798728  0.08121307    -0.62190
C774        C  0.62001358  0.99324243  0.09233964     0.94580
C775        C  0.74394050  0.99577792  0.10909350     0.94360
N776        N  0.72783986  0.92791854  0.98488606    -0.07780
N777        N  0.74147923  0.90262508  0.97546886    -0.60290
N778        N  0.65755347  0.92939833  0.01253254    -0.05900
N779        N  0.63520082  0.91187848  0.02224687    -0.61540
N780        N  0.65857779  0.92938552  0.98254794    -0.07810
N781        N  0.63690621  0.91189391  0.97111112    -0.60560
N782        N  0.72680100  0.92829585  0.01501596    -0.05540
N783        N  0.73977744  0.90355507  0.02609388    -0.61630
Mn784      Mn  0.69144473  0.95385438  0.03998483     1.18440
C785        C  0.74912117  0.88761053  0.00144422     0.96670
C786        C  0.62248002  0.90135214  0.99617670     0.97330
N787        N  0.72474369  0.06247889  0.01640857    -0.07830
N788        N  0.73809992  0.08681842  0.02794996    -0.64140
N789        N  0.65540400  0.05991382  0.98517121    -0.06630
N790        N  0.63352206  0.07773702  0.97471924    -0.64810
N791        N  0.65525852  0.05959031  0.01515270    -0.07330
N792        N  0.63325430  0.07711041  0.02588094    -0.64400
N793        N  0.72453512  0.06398329  0.98636246    -0.06230
N794        N  0.73736648  0.08970983  0.97731613    -0.65090
Mn795      Mn  0.69043528  0.03539747  0.04098436     1.10660
C796        C  0.74623082  0.10370201  0.00347647     0.97890
C797        C  0.61983026  0.08804553  0.00039690     0.97960
N798        N  0.65886068  0.97999253  0.93327473    -0.07340
N799        N  0.63729136  0.96906777  0.91528406    -0.62720
N800        N  0.72729617  0.01211774  0.93448074    -0.06660
N801        N  0.74112827  0.02386249  0.91058477    -0.59450
N802        N  0.72809646  0.98206862  0.93310733    -0.07970
N803        N  0.74216342  0.97338048  0.90782909    -0.62280
N804        N  0.65782859  0.00991200  0.93402206    -0.06960
N805        N  0.63556034  0.02005250  0.91648127    -0.59470
Mn806      Mn  0.69392474  0.95447170  0.95800575     1.20190
Mn807      Mn  0.69154701  0.03672515  0.95962324     1.10090
Cl808      Cl  0.69247478  0.99509799  0.99964115    -0.87440
C809        C  0.62291206  0.99432384  0.90516787     0.94890
C810        C  0.75034385  0.99970441  0.89394015     0.94690
N811        N  0.02438254  0.84023805  0.56537083    -0.07590
N812        N  0.03517619  0.86218110  0.58298665    -0.59710
N813        N  0.99495644  0.77121447  0.56799451    -0.07270
N814        N  0.98616262  0.75900243  0.59413950    -0.61840
N815        N  0.02503971  0.77087124  0.56632628    -0.06870
N816        N  0.03666866  0.75799604  0.59088169    -0.59690
N817        N  0.99440823  0.84020295  0.56584521    -0.06550
N818        N  0.98410245  0.86209977  0.58378562    -0.62190
C819        C  0.00977143  0.87566234  0.59410256     0.94580
C820        C  0.01241491  0.75078114  0.60827770     0.94360
N821        N  0.94158787  0.77087946  0.48573971    -0.07780
N822        N  0.91683204  0.75782059  0.47488669    -0.60290
N823        N  0.94326081  0.84002695  0.51594002    -0.05900
N824        N  0.92532768  0.86178368  0.52650224    -0.61540
N825        N  0.94307083  0.83987998  0.48592459    -0.07810
N826        N  0.92507608  0.86148098  0.47533587    -0.60560
N827        N  0.94090828  0.77098916  0.51588893    -0.05540
N828        N  0.91530505  0.75812454  0.52548884    -0.61630
Mn829      Mn  0.96798863  0.80515870  0.54184418     1.18440
C830        C  0.90050230  0.74961434  0.49959451     0.96670
C831        C  0.91441136  0.87499611  0.50087561     0.97330
N832        N  0.07624796  0.77132357  0.51355479    -0.07830
N833        N  0.10116094  0.75702887  0.52277862    -0.64140
N834        N  0.07295277  0.84090759  0.48415565    -0.06630
N835        N  0.09019511  0.86292337  0.47327283    -0.64810
N836        N  0.07370073  0.84079562  0.51413301    -0.07330
N837        N  0.09147188  0.86278401  0.52443534    -0.64400
N838        N  0.07526741  0.77166236  0.48350895    -0.06230
N839        N  0.09934627  0.75770437  0.47209964    -0.65090
Mn840      Mn  0.05014735  0.80542321  0.54017674     1.10660
C841        C  0.11536500  0.74831065  0.49665537     0.97890
C842        C  0.10135567  0.87642887  0.49866235     0.97960
N843        N  0.99214793  0.84029424  0.43480836    -0.07340
N844        N  0.98114072  0.86174259  0.41683718    -0.62720
N845        N  0.02281453  0.77081625  0.43367491    -0.06660
N846        N  0.03391131  0.75643414  0.40976242    -0.59450
N847        N  0.99278884  0.77114305  0.43256525    -0.07970
N848        N  0.98329784  0.75761751  0.40720894    -0.62280
N849        N  0.02207723  0.84050977  0.43447134    -0.06960
N850        N  0.03221962  0.86212487  0.41623231    -0.59470
Mn851      Mn  0.96709245  0.80515309  0.45952175     1.20190
Mn852      Mn  0.04847680  0.80572036  0.45871330     1.10090
Cl853      Cl  0.00838999  0.80478277  0.50012083    -0.87440
C854        C  0.00641224  0.87524469  0.40563520     0.94890
C855        C  0.00924107  0.74813097  0.39327768     0.94690
N856        N  0.85341984  0.00490486  0.43467001    -0.07590
N857        N  0.87510374  0.01567624  0.41693396    -0.59710
N858        N  0.78421416  0.97473980  0.43328872    -0.07270
N859        N  0.76976842  0.96461515  0.40875114    -0.61840
N860        N  0.78427088  0.00479201  0.43348111    -0.06870
N861        N  0.76998306  0.01519830  0.40915502    -0.59690
N862        N  0.85366449  0.97498857  0.43466501    -0.06550
N863        N  0.87560864  0.96463189  0.41683158    -0.62190
C864        C  0.88880143  0.99031978  0.40619951     0.94580
C865        C  0.76057579  0.99010855  0.39392912     0.94360
N866        N  0.78548388  0.92320865  0.51617612    -0.07780
N867        N  0.77198733  0.89850657  0.52673381    -0.60290
N868        N  0.85435247  0.92528415  0.48552277    -0.05900
N869        N  0.87659716  0.90792847  0.47504415    -0.61540
N870        N  0.85456856  0.92565408  0.51552545    -0.07810
N871        N  0.87691114  0.90860917  0.52621295    -0.60560
N872        N  0.78491583  0.92307584  0.48603890    -0.05540
N873        N  0.77075344  0.89844141  0.47604013    -0.61630
Mn874      Mn  0.81890514  0.94904844  0.45943457     1.18440
C875        C  0.76240052  0.88328801  0.50159846     0.96670
C876        C  0.89047667  0.89793357  0.50070231     0.97330
N877        N  0.78515467  0.05770315  0.48485492    -0.07830
N878        N  0.77291589  0.08333151  0.47486230    -0.64140
N879        N  0.85472153  0.05543196  0.51415791    -0.06630
N880        N  0.87634842  0.07360512  0.52446599    -0.64810
N881        N  0.85425785  0.05536282  0.48418978    -0.07330
N882        N  0.87560639  0.07345625  0.47329852    -0.64400
N883        N  0.78575086  0.05774841  0.51495043    -0.06230
N884        N  0.77401482  0.08333450  0.52551171    -0.65090
Mn885      Mn  0.81883106  0.03088522  0.45899360     1.10660
C886        C  0.76582399  0.09916513  0.50046140     0.97890
C887        C  0.88926201  0.08441733  0.49870674     0.97960
N888        N  0.85512621  0.97605342  0.56529108    -0.07340
N889        N  0.87720295  0.96585291  0.58304405    -0.62720
N890        N  0.78548148  0.00632151  0.56654914    -0.06660
N891        N  0.77285200  0.01786390  0.59128953    -0.59450
N892        N  0.78608835  0.97629649  0.56819981    -0.07970
N893        N  0.77450595  0.96736390  0.59457594    -0.62280
N894        N  0.85508750  0.00594669  0.56473445    -0.06960
N895        N  0.87712745  0.01687646  0.58208183    -0.59470
Mn896      Mn  0.81987058  0.94992470  0.54163406     1.20190
Mn897      Mn  0.81990212  0.03146115  0.54030298     1.10090
Cl898      Cl  0.81836093  0.99022724  0.50005621    -0.87440
C899        C  0.89077174  0.99160078  0.59312061     0.94890
C900        C  0.76629968  0.99352187  0.60877906     0.94690
N901        N  0.15968718  0.92934028  0.51199880    -0.07590
N902        N  0.13831771  0.91146439  0.52325044    -0.59710
N903        N  0.22814738  0.92671037  0.48063982    -0.07270
N904        N  0.24102022  0.90096520  0.47138910    -0.61840
N905        N  0.22931871  0.92858253  0.51067900    -0.06870
N906        N  0.24358609  0.90469144  0.52190643    -0.59690
N907        N  0.15909076  0.92878558  0.48200487    -0.06550
N908        N  0.13730329  0.91059603  0.47209572    -0.62190
C909        C  0.12449068  0.90018605  0.49806633     0.94580
C910        C  0.25099184  0.88748388  0.49737294     0.94360
N911        N  0.22664524  0.00881365  0.42811380    -0.07780
N912        N  0.24059582  0.01921685  0.40356981    -0.60290
N913        N  0.15767529  0.97817056  0.43109731    -0.05900
N914        N  0.13584758  0.96726547  0.41344076    -0.61540
N915        N  0.15726763  0.00809500  0.43103626    -0.07810
N916        N  0.13517855  0.01829107  0.41331539    -0.60560
N917        N  0.22692713  0.97874337  0.42801833    -0.05540
N918        N  0.24092692  0.96854967  0.40328291    -0.61630
Mn919      Mn  0.19334596  0.95276802  0.45505333     1.18440
C920        C  0.24983534  0.99397705  0.38833381     0.96670
C921        C  0.12196340  0.99256863  0.40274187     0.97330
N922        N  0.22987352  0.98056083  0.56185798    -0.07830
N923        N  0.24435074  0.96977914  0.58590014    -0.64140
N924        N  0.16002843  0.01010225  0.56219713    -0.06630
N925        N  0.13871133  0.02063570  0.58070644    -0.64810
N926        N  0.16026913  0.98017616  0.56225306    -0.07330
N927        N  0.13912207  0.96961302  0.58086381    -0.64400
N928        N  0.22934191  0.01059559  0.56273637    -0.06230
N929        N  0.24313107  0.02036816  0.58782524    -0.65090
Mn930      Mn  0.19508366  0.95445166  0.53689023     1.10660
C931        C  0.25282209  0.99467316  0.60196433     0.97890
C932        C  0.12578739  0.99511880  0.59199209     0.97960
N933        N  0.15750109  0.05897030  0.48114555    -0.07340
N934        N  0.13528046  0.07647010  0.47086618    -0.62720
N935        N  0.22745243  0.06238625  0.50958358    -0.06660
N936        N  0.24026331  0.08795940  0.51905475    -0.59450
N937        N  0.22650655  0.06189883  0.47945904    -0.07970
N938        N  0.23849293  0.08714353  0.46843033    -0.62280
N939        N  0.15827631  0.05951434  0.51115211    -0.06960
N940        N  0.13657145  0.07734282  0.52200451    -0.59470
Mn941      Mn  0.19232047  0.03469202  0.45462520     1.20190
Mn942      Mn  0.19421394  0.03598831  0.53672179     1.10090
Cl943      Cl  0.19432416  0.99450154  0.49581196    -0.87440
C944        C  0.12237007  0.08753138  0.49661716     0.94890
C945        C  0.24732688  0.10327379  0.49319201     0.94690
N946        N  0.93941017  0.14437724  0.48308611    -0.07590
N947        N  0.92216122  0.12202816  0.47271955    -0.59710
N948        N  0.93648542  0.21366849  0.51280391    -0.07270
N949        N  0.91158048  0.22717760  0.52308977    -0.61840
N950        N  0.93647067  0.21366690  0.48266056    -0.06870
N951        N  0.91169777  0.22743227  0.47238132    -0.59690
N952        N  0.93966511  0.14458294  0.51308467    -0.06550
N953        N  0.92259278  0.12237453  0.52387936    -0.62190
C954        C  0.91206618  0.10847236  0.49842928     0.94580
C955        C  0.89634667  0.23616004  0.49777212     0.94360
N956        N  0.01939137  0.21475567  0.56495831    -0.07780
N957        N  0.02986249  0.22803120  0.58994749    -0.60290
N958        N  0.99021731  0.14544051  0.56305544    -0.05900
N959        N  0.98010975  0.12361364  0.58103296    -0.61540
N960        N  0.02017272  0.14572331  0.56274101    -0.07810
N961        N  0.03119758  0.12412899  0.58050863    -0.60560
N962        N  0.98929264  0.21467865  0.56520607    -0.05540
N963        N  0.97924213  0.22807108  0.59035410    -0.61630
Mn964      Mn  0.96356307  0.18003334  0.53885039     1.18440
C965        C  0.00474366  0.23661516  0.60563135     0.96670
C966        C  0.00593497  0.11047203  0.59151535     0.97330
N967        N  0.98811875  0.21349185  0.42971427    -0.07830
N968        N  0.97761405  0.22647086  0.40463261    -0.64140
N969        N  0.01901538  0.14473757  0.43205407    -0.06630
N970        N  0.02972363  0.12300673  0.41412718    -0.64810
N971        N  0.98906585  0.14439532  0.43228325    -0.07330
N972        N  0.97864427  0.12242016  0.41452119    -0.64400
N973        N  0.01819397  0.21403256  0.42976860    -0.06230
N974        N  0.02825068  0.22762121  0.40486491    -0.65090
Mn975      Mn  0.96292511  0.17938501  0.45665525     1.10660
C976        C  0.00276719  0.23568727  0.38937783     0.97890
C977        C  0.00426703  0.10921651  0.40358073     0.97960
N978        N  0.06997380  0.14601277  0.51203989    -0.07340
N979        N  0.08816365  0.12444600  0.52250213    -0.62720
N980        N  0.07039826  0.21497737  0.48173968    -0.06660
N981        N  0.09458754  0.22918673  0.47102589    -0.59450
N982        N  0.07072586  0.21542962  0.51185358    -0.07970
N983        N  0.09512104  0.23012117  0.52172172    -0.62280
N984        N  0.06957533  0.14575894  0.48204864    -0.06960
N985        N  0.08746549  0.12403285  0.47135514    -0.59470
Mn986      Mn  0.04539473  0.18088223  0.53817447     1.20190
Mn987      Mn  0.04458555  0.18025243  0.45614114     1.10090
Cl988      Cl  0.00407327  0.18116577  0.49747819    -0.87440
C989        C  0.09867875  0.11087592  0.49685310     0.94890
C990        C  0.10981806  0.23895906  0.49602985     0.94690
N991        N  0.01993349  0.92639395  0.34578900    -0.07590
N992        N  0.03105229  0.90898035  0.36766272    -0.59710
N993        N  0.98821102  0.92365783  0.27674949    -0.07270
N994        N  0.97730594  0.89857222  0.26418786    -0.61840
N995        N  0.01828236  0.92311675  0.27648169    -0.06870
N996        N  0.02796747  0.89741784  0.26396753    -0.59690
N997        N  0.99000405  0.92622095  0.34629441    -0.06550
N998        N  0.97996950  0.90870248  0.36855523    -0.62190
C999        C  0.00583730  0.89833077  0.38173770     0.94580
C1000       C  0.00220102  0.88225531  0.25628336     0.94360
N1001       N  0.93562229  0.00534135  0.27706569    -0.07780
N1002       N  0.91020613  0.01479639  0.26378826    -0.60290
N1003       N  0.93984500  0.97608825  0.34664043    -0.05900
N1004       N  0.92280031  0.96533431  0.36889572    -0.61540
N1005       N  0.93932699  0.00600210  0.34647141    -0.07810
N1006       N  0.92186458  0.01637328  0.36871136    -0.60560
N1007       N  0.93625666  0.97530364  0.27754210    -0.05540
N1008       N  0.91140810  0.96425858  0.26469176    -0.61630
Mn1009     Mn  0.96337120  0.95014821  0.31142183     1.18440
C1010       C  0.89531090  0.98891802  0.25576499     0.96670
C1011       C  0.91198240  0.99071128  0.38251536     0.97330
N1012       N  0.06961191  0.97579919  0.27450723    -0.07830
N1013       N  0.09379735  0.96446077  0.26073229    -0.64140
N1014       N  0.06958685  0.00679213  0.34400596    -0.06630
N1015       N  0.08748371  0.01759002  0.36569427    -0.64810
N1016       N  0.06970992  0.97686210  0.34416113    -0.07330
N1017       N  0.08770236  0.96655773  0.36599783    -0.64400
N1018       N  0.07092332  0.00586261  0.27476666    -0.06230
N1019       N  0.09654756  0.01497892  0.26161989    -0.65090
Mn1020     Mn  0.04467553  0.95036184  0.30982876     1.10660
C1021       C  0.11052911  0.98890793  0.25256152     0.97890
C1022       C  0.09839840  0.99222787  0.37926671     0.97960
N1023       N  0.98906928  0.05672388  0.34503482    -0.07340
N1024       N  0.97867383  0.07458034  0.36696459    -0.62720
N1025       N  0.01783423  0.05847018  0.27534712    -0.06660
N1026       N  0.02761359  0.08356999  0.26198580    -0.59450
N1027       N  0.98771212  0.05817939  0.27569497    -0.07970
N1028       N  0.97698917  0.08298339  0.26237221    -0.62280
N1029       N  0.01904014  0.05696362  0.34458737    -0.06960
N1030       N  0.02974607  0.07503043  0.36622460    -0.59470
Mn1031     Mn  0.96257393  0.03190581  0.31063155     1.20190
Mn1032     Mn  0.04468952  0.03236638  0.30922328     1.10090
Cl1033     Cl  0.00382958  0.99123741  0.30959360    -0.87440
C1034       C  0.00428857  0.08562654  0.38004021     0.94890
C1035       C  0.00204142  0.09862436  0.25349442     0.94690
N1036       N  0.99498063  0.92888174  0.65212708    -0.07590
N1037       N  0.98442990  0.91051563  0.63070535    -0.59710
N1038       N  0.02485141  0.92741836  0.72109921    -0.07270
N1039       N  0.03426275  0.90139181  0.73311340    -0.61840
N1040       N  0.99478036  0.92864994  0.72181452    -0.06870
N1041       N  0.98372558  0.90411932  0.73500579    -0.59690
N1042       N  0.02494331  0.92905378  0.65198118    -0.06550
N1043       N  0.03551019  0.91076958  0.63045031    -0.62190
C1044       C  0.00994245  0.89959882  0.61730868     0.94580
C1045       C  0.00833421  0.88701822  0.74171919     0.94360
N1046       N  0.07503998  0.01125854  0.72099723    -0.07780
N1047       N  0.09926613  0.02270660  0.73467648    -0.60290
N1048       N  0.07448454  0.98019815  0.65165450    -0.05900
N1049       N  0.09244755  0.96965863  0.62987314    -0.61540
N1050       N  0.07386539  0.01013725  0.65132759    -0.07810
N1051       N  0.09145074  0.02065941  0.62928382    -0.60560
N1052       N  0.07649584  0.98118878  0.72099013    -0.05540
N1053       N  0.10203912  0.97215971  0.73437396    -0.61630
Mn1054     Mn  0.05059627  0.95415373  0.68685734     1.18440
C1055       C  0.11597517  0.99825656  0.74322325     0.96670
C1056       C  0.10268106  0.99513893  0.61605324     0.97330
N1057       N  0.94210225  0.97876015  0.72116655    -0.07830
N1058       N  0.91796635  0.96743829  0.73499528    -0.64140
N1059       N  0.94300434  0.00810595  0.65136349    -0.06630
N1060       N  0.92479385  0.01807610  0.62958018    -0.64810
N1061       N  0.94372056  0.97820730  0.65157699    -0.07330
N1062       N  0.92594584  0.96704272  0.62995478    -0.64400
N1063       N  0.94058170  0.00873706  0.72072844    -0.06230
N1064       N  0.91506412  0.01792871  0.73402370    -0.65090
Mn1065     Mn  0.96877344  0.95345670  0.68698588     1.10660
C1066       C  0.90111774  0.99190414  0.74306040     0.97890
C1067       C  0.91455208  0.99220850  0.61636153     0.97960
N1068       N  0.02220139  0.05945950  0.65071328    -0.07340
N1069       N  0.03231586  0.07711370  0.62861247    -0.62720
N1070       N  0.99203166  0.06157254  0.72042525    -0.06660
N1071       N  0.98066233  0.08599780  0.73382563    -0.59450
N1072       N  0.02207707  0.06317158  0.71979536    -0.07970
N1073       N  0.03117417  0.08909678  0.73234779    -0.62280
N1074       N  0.99223694  0.05903424  0.65093979    -0.06960
N1075       N  0.98122958  0.07634828  0.62894775    -0.59470
Mn1076     Mn  0.04865603  0.03629820  0.68608156     1.20190
Mn1077     Mn  0.96671775  0.03467787  0.68627991     1.10090
Cl1078     Cl  0.00872554  0.99467265  0.68715549    -0.87440
C1079       C  0.00649458  0.08723540  0.61517949     0.94890
C1080       C  0.00515268  0.10307428  0.74149299     0.94690
C1081       C  0.00184830  0.23004418  0.25781414    -0.00910
C1082       C  0.00188493  0.25226046  0.23585003    -0.00910
C1083       C  0.74082415  0.98919772  0.24142081    -0.00910
C1084       C  0.76385373  0.98904179  0.26260352    -0.00910
C1085       C  0.01572867  0.72834166  0.24087198    -0.00910
C1086       C  0.01603474  0.75173639  0.26164598    -0.00910
C1087       C  0.26360487  0.98198745  0.23531191    -0.00910
C1088       C  0.24249427  0.98467474  0.25815854    -0.00910
C1089       C  0.24132619  0.23504474  0.50092204    -0.00910
C1090       C  0.26404098  0.25607378  0.49572951    -0.00910
C1091       C  0.74248109  0.25131364  0.50165270    -0.00910
C1092       C  0.76509451  0.23067989  0.49405385    -0.00910
C1093       C  0.26881348  0.73500070  0.50284155    -0.00910
C1094       C  0.24552077  0.75565860  0.50663525    -0.00910
C1095       C  0.26985882  0.99664203  0.75479678    -0.00910
C1096       C  0.24704746  0.99768384  0.73344120    -0.00910
C1097       C  0.23872193  0.25000631  0.99072994    -0.00910
C1098       C  0.26157918  0.22891538  0.98718137    -0.00910
C1099       C  0.24797787  0.72793324  0.99595179    -0.00910
C1100       C  0.26978814  0.74965101  0.00156556    -0.00910
C1101       C  0.50092971  0.72965114  0.25793501    -0.00910
C1102       C  0.49862651  0.75066748  0.23499339    -0.00910
C1103       C  0.50713165  0.22853270  0.23858222    -0.00910
C1104       C  0.51055439  0.24995037  0.26117936    -0.00910
C1105       C  0.49306442  0.25633327  0.73853555    -0.00910
C1106       C  0.49122888  0.23473397  0.76098947    -0.00910
C1107       C  0.99683277  0.25536823  0.75974435    -0.00910
C1108       C  0.99370086  0.23430560  0.73676734    -0.00910
C1109       C  0.76205647  0.25689404  0.00596581    -0.00910
C1110       C  0.73964433  0.23542329  0.01038603    -0.00910
C1111       C  0.26514847  0.48559386  0.26261880    -0.00910
C1112       C  0.24454107  0.48707722  0.23907869    -0.00910
C1113       C  0.76544747  0.48513479  0.23538350    -0.00910
C1114       C  0.74380113  0.48222010  0.25767276    -0.00910
C1115       C  0.26641063  0.49603794  0.73739895    -0.00910
C1116       C  0.24415721  0.49423597  0.75929912    -0.00910
C1117       C  0.00951274  0.73327930  0.76279470    -0.00910
C1118       C  0.00992134  0.75497932  0.74031848    -0.00910
C1119       C  0.74759020  0.99697975  0.76275486    -0.00910
C1120       C  0.76991688  0.99566076  0.74099532    -0.00910
C1121       C  0.76880695  0.73410192  0.99404461    -0.00910
C1122       C  0.74731270  0.75655495  0.99199525    -0.00910
C1123       C  0.74355036  0.49437296  0.73731767    -0.00910
C1124       C  0.76564701  0.49574446  0.75937529    -0.00910
C1125       C  0.74714194  0.73021713  0.49158950    -0.00910
C1126       C  0.76853761  0.75259687  0.49600929    -0.00910
C1127       C  0.51346318  0.75673143  0.76127282    -0.00910
C1128       C  0.51760580  0.73596774  0.73758265    -0.00910
C1129       C  0.86778225  0.99037045  0.74991634    -0.07600
C1130       C  0.85267454  0.01729888  0.75863990    -0.18730
C1131       C  0.82071948  0.01952905  0.75835115     0.09600
C1132       C  0.80302936  0.99394934  0.74946253    -0.07520
C1133       C  0.81806109  0.96651464  0.74298150    -0.18760
C1134       C  0.84983125  0.96419982  0.74352607     0.09630
S1135       S  0.80487008  0.05647900  0.76712930    -0.33720
S1136       S  0.86542371  0.92759727  0.73332605    -0.33730
H1137       H  0.87463617  0.93780382  0.70430433     0.27640
H1138       H  0.77731199  0.05298334  0.75151735     0.27630
H1139       H  0.86591406  0.03746339  0.76396469     0.18230
H1140       H  0.80490288  0.94694334  0.73561768     0.18230
C1141       C  0.99549204  0.20085744  0.74354986    -0.07600
C1142       C  0.02395842  0.18771414  0.75045978    -0.18730
C1143       C  0.02763024  0.15597334  0.75275772     0.09600
C1144       C  0.00240885  0.13653187  0.74734575    -0.07520
C1145       C  0.97363931  0.14997239  0.74277400    -0.18760
C1146       C  0.96991795  0.18150437  0.74081226     0.09630
S1147       S  0.06505001  0.14197227  0.76233763    -0.33720
S1148       S  0.93182451  0.19496135  0.73372969    -0.33730
H1149       H  0.93531890  0.22235971  0.74965468     0.27640
H1150       H  0.05420236  0.11755246  0.78001469     0.27630
H1151       H  0.04367615  0.20224936  0.75338807     0.18230
H1152       H  0.95373987  0.13578955  0.73923701     0.18230
C1153       C  0.14954546  0.00045486  0.74770172    -0.07600
C1154       C  0.16453671  0.02446417  0.73289484    -0.18730
C1155       C  0.19612855  0.02491053  0.72954475     0.09600
C1156       C  0.21403270  0.00098548  0.74177961    -0.07520
C1157       C  0.19934603  0.97822917  0.75896303    -0.18760
C1158       C  0.16737456  0.97758178  0.76182012     0.09630
S1159       S  0.21158911  0.05659647  0.70848130    -0.33720
S1160       S  0.15073366  0.94660196  0.78290261    -0.33730
H1161       H  0.12468430  0.96286874  0.79225071     0.27640
H1162       H  0.23944733  0.05766096  0.72408284     0.27630
H1163       H  0.15145367  0.04241055  0.72207466     0.18230
H1164       H  0.21268728  0.95985009  0.76867865     0.18230
C1165       C  0.00657887  0.85343944  0.74574411    -0.07600
C1166       C  0.03133665  0.83807149  0.75897653    -0.18730
C1167       C  0.03326506  0.80610053  0.75873398     0.09600
C1168       C  0.00872418  0.78860025  0.74670711    -0.07520
C1169       C  0.98364340  0.80423844  0.73445040    -0.18760
C1170       C  0.98252073  0.83590703  0.73306493     0.09630
S1171       S  0.06918936  0.79044462  0.77105907    -0.33720
S1172       S  0.95153293  0.85160347  0.71096765    -0.33730
H1173       H  0.97115075  0.86652323  0.69041544     0.27640
H1174       H  0.06713817  0.76299468  0.75504339     0.27630
H1175       H  0.05033566  0.85116466  0.76786751     0.18230
H1176       H  0.96540213  0.79162374  0.72367404     0.18230
C1177       C  0.14411700  0.98631874  0.24841817    -0.07600
C1178       C  0.15876827  0.96241039  0.26383563    -0.18730
C1179       C  0.19040599  0.96076276  0.26631074     0.09600
C1180       C  0.20879696  0.98323274  0.25224766    -0.07520
C1181       C  0.19425828  0.00625863  0.23513662    -0.18760
C1182       C  0.16224422  0.00823077  0.23338414     0.09630
S1183       S  0.20492351  0.92973681  0.28915581    -0.33720
S1184       S  0.14601482  0.03949271  0.21228962    -0.33730
H1185       H  0.11921108  0.02407833  0.20376970     0.27640
H1186       H  0.23300009  0.92646284  0.27449846     0.27630
H1187       H  0.14540641  0.94541937  0.27572497     0.18230
H1188       H  0.20783787  0.02364351  0.22415298     0.18230
C1189       C  0.00191862  0.84868547  0.25144899    -0.07600
C1190       C  0.02683022  0.83513349  0.23655223    -0.18730
C1191       C  0.03161319  0.80348670  0.23705456     0.09600
C1192       C  0.01071088  0.78450161  0.25294130    -0.07520
C1193       C  0.98422228  0.79796101  0.26496122    -0.18760
C1194       C  0.97981112  0.82945783  0.26498561     0.09630
S1195       S  0.06551985  0.79021401  0.21799528    -0.33720
S1196       S  0.94722985  0.84320884  0.28597385    -0.33730
H1197       H  0.96527351  0.85911474  0.30732800     0.27640
H1198       H  0.06803089  0.76309227  0.23395666     0.27630
H1199       H  0.04367075  0.84954797  0.22569309     0.18230
H1200       H  0.96758172  0.78382309  0.27647290     0.18230
C1201       C  0.79699866  0.98948131  0.25399327    -0.07600
C1202       C  0.81307964  0.96183530  0.25401353    -0.18730
C1203       C  0.84473253  0.96063828  0.25017486     0.09600
C1204       C  0.86181510  0.98803763  0.24949276    -0.07520
C1205       C  0.84572756  0.01573658  0.24834314    -0.18760
C1206       C  0.81380307  0.01671123  0.25011585     0.09630
S1207       S  0.86147539  0.92323301  0.24695014    -0.33720
S1208       S  0.79636939  0.05366804  0.24962202    -0.33730
H1209       H  0.78048601  0.04746084  0.22252631     0.27640
H1210       H  0.88249181  0.93197602  0.22432960     0.27630
H1211       H  0.80105839  0.94071624  0.25751595     0.18230
H1212       H  0.85812417  0.03704996  0.24736841     0.18230
C1213       C  0.00137394  0.13198966  0.24668557    -0.07600
C1214       C  0.97373467  0.14790303  0.25053060    -0.18730
C1215       C  0.97273753  0.17983739  0.25184450     0.09600
C1216       C  0.00011311  0.19677534  0.24996792    -0.07520
C1217       C  0.02734175  0.18095544  0.24399323    -0.18760
C1218       C  0.02815275  0.14915575  0.24134190     0.09630
S1219       S  0.93580523  0.19703706  0.25718671    -0.33720
S1220       S  0.06428052  0.13218434  0.23146070    -0.33730
H1221       H  0.05131880  0.10901045  0.21336709     0.27640
H1222       H  0.94346659  0.22528276  0.24469460     0.27630
H1223       H  0.95272117  0.13540795  0.25390642     0.18230
H1224       H  0.04848567  0.19332650  0.24177387     0.18230
C1225       C  0.00448777  0.24392809  0.63903055    -0.07600
C1226       C  0.97644931  0.25159221  0.65255759    -0.18730
C1227       C  0.97243472  0.25166008  0.68435091     0.09600
C1228       C  0.99685910  0.24263195  0.70363347    -0.07520
C1229       C  0.02547922  0.23740918  0.69020335    -0.18760
C1230       C  0.02982429  0.23879285  0.65855362     0.09630
S1231       S  0.93516517  0.26254015  0.69763062    -0.33720
S1232       S  0.06808295  0.23230621  0.64507727    -0.33730
H1233       H  0.06729718  0.25709244  0.62475326     0.27640
H1234       H  0.94479531  0.27292451  0.72599947     0.27630
H1235       H  0.95698831  0.25661534  0.63812966     0.18230
H1236       H  0.04471729  0.23156737  0.70460744     0.18230
C1237       C  0.86303480  0.24350554  0.49731568    -0.07600
C1238       C  0.84793184  0.24374298  0.46897505    -0.18730
C1239       C  0.81604063  0.24242112  0.46681930     0.09600
C1240       C  0.79820633  0.24009085  0.49371413    -0.07520
C1241       C  0.81331953  0.24213631  0.52196827    -0.18760
C1242       C  0.84504044  0.24501016  0.52410305     0.09630
S1243       S  0.80058463  0.24272724  0.42880350    -0.33720
S1244       S  0.86074745  0.24964390  0.56186429    -0.33730
H1245       H  0.88331522  0.27039116  0.55249968     0.27640
H1246       H  0.77158509  0.25246146  0.43728810     0.27630
H1247       H  0.86111068  0.24357611  0.44805255     0.18230
H1248       H  0.80046295  0.24015543  0.54285573     0.18230
C1249       C  0.14292896  0.24674340  0.49587733    -0.07600
C1250       C  0.15788188  0.25015217  0.52402147    -0.18730
C1251       C  0.18977167  0.24925622  0.52640137     0.09600
C1252       C  0.20786734  0.24353016  0.50004431    -0.07520
C1253       C  0.19257884  0.24149979  0.47183439    -0.18760
C1254       C  0.16100007  0.24492568  0.46921813     0.09630
S1255       S  0.20459264  0.25393320  0.56430395    -0.33720
S1256       S  0.14562299  0.24590595  0.43103286    -0.33730
H1257       H  0.12380838  0.26844390  0.43799877     0.27640
H1258       H  0.22914678  0.27166426  0.55497681     0.27630
H1259       H  0.14454832  0.25237048  0.54474305     0.18230
H1260       H  0.20489598  0.23623832  0.45127002     0.18230
C1261       C  0.00296687  0.24210255  0.35592474    -0.07600
C1262       C  0.03049709  0.23820110  0.33989418    -0.18730
C1263       C  0.03123174  0.23622960  0.30796324     0.09600
C1264       C  0.00369356  0.23770379  0.29114488    -0.07520
C1265       C  0.97652176  0.24375826  0.30702698    -0.18760
C1266       C  0.97595598  0.24688434  0.33885982     0.09630
S1267       S  0.06808630  0.23046614  0.29076079    -0.33720
S1268       S  0.93990692  0.25668705  0.35603506    -0.33730
H1269       H  0.95291620  0.27479543  0.37919861     0.27640
H1270       H  0.06025042  0.24203986  0.26213863     0.27630
H1271       H  0.05165921  0.23518943  0.35232699     0.18230
H1272       H  0.95528982  0.24575486  0.29465564     0.18230
C1273       C  0.25839654  0.99310817  0.63540643    -0.07600
C1274       C  0.24494422  0.96885080  0.65134848    -0.18730
C1275       C  0.24221011  0.96922763  0.68317159     0.09600
C1276       C  0.25387868  0.99416532  0.69998470    -0.07520
C1277       C  0.27006682  0.01695859  0.68427198    -0.18760
C1278       C  0.27220730  0.01682670  0.65228216     0.09630
S1279       S  0.22286781  0.93794456  0.70165633    -0.33720
S1280       S  0.29215251  0.04786917  0.63439095    -0.33730
H1281       H  0.30143090  0.03109699  0.60859116     0.27640
H1282       H  0.21912810  0.91937834  0.67569500     0.27630
H1283       H  0.23453284  0.95036990  0.63871579     0.18230
H1284       H  0.27979969  0.03587442  0.69677731     0.18230
C1285       C  0.25273560  0.13689407  0.49306527    -0.07600
C1286       C  0.25774222  0.15129891  0.52127820    -0.18730
C1287       C  0.25542908  0.18295316  0.52481627     0.09600
C1288       C  0.24826727  0.20147203  0.49919512    -0.07520
C1289       C  0.24558596  0.18718487  0.47057457    -0.18760
C1290       C  0.24802293  0.15554407  0.46707330     0.09630
S1291       S  0.26061466  0.19659787  0.56327168    -0.33720
S1292       S  0.24365739  0.14092725  0.42883812    -0.33730
H1293       H  0.26875714  0.12105343  0.43128371     0.27640
H1294       H  0.25771225  0.22725882  0.55684813     0.27630
H1295       H  0.26199277  0.13757261  0.54138476     0.18230
H1296       H  0.24102488  0.20073933  0.45052661     0.18230
C1297       C  0.25577082  0.85398256  0.50035970    -0.07600
C1298       C  0.24547505  0.84043742  0.52743389    -0.18730
C1299       C  0.24212954  0.80894089  0.53024408     0.09600
C1300       C  0.25129262  0.78947916  0.50609574    -0.07520
C1301       C  0.26270543  0.80297535  0.47924519    -0.18760
C1302       C  0.26531491  0.83477955  0.47622797     0.09630
S1303       S  0.22479338  0.79505395  0.56474022    -0.33720
S1304       S  0.28077497  0.84930967  0.44107282    -0.33730
H1305       H  0.29419587  0.87521590  0.45445080     0.27640
H1306       H  0.21130301  0.82256868  0.57431125     0.27630
H1307       H  0.23817787  0.85472009  0.54623102     0.18230
H1308       H  0.26845759  0.78875594  0.45990487     0.18230
C1309       C  0.25657227  0.99423381  0.35503645    -0.07600
C1310       C  0.24543721  0.01883167  0.33781890    -0.18730
C1311       C  0.24316344  0.01717283  0.30604224     0.09600
C1312       C  0.25189254  0.99020796  0.29066106    -0.07520
C1313       C  0.26698746  0.96736558  0.30735444    -0.18760
C1314       C  0.26914756  0.96894656  0.33932857     0.09630
S1315       S  0.22847088  0.05023021  0.28657854    -0.33720
S1316       S  0.28724622  0.93758370  0.35870463    -0.33730
H1317       H  0.29783566  0.95512041  0.38347461     0.27640
H1318       H  0.24506615  0.04548649  0.25952913     0.27630
H1319       H  0.23668395  0.03897114  0.34919362     0.18230
H1320       H  0.27571137  0.94741264  0.29566822     0.18230
C1321       C  0.76100238  0.13274431  0.50033990    -0.07600
C1322       C  0.75611726  0.14709657  0.47206536    -0.18730
C1323       C  0.75536355  0.17887586  0.46943059     0.09600
C1324       C  0.76118565  0.19719780  0.49546997    -0.07520
C1325       C  0.76604019  0.18295877  0.52372326    -0.18760
C1326       C  0.76480523  0.15128711  0.52671291     0.09630
S1327       S  0.74297766  0.19393445  0.43328296    -0.33720
S1328       S  0.76765727  0.13668097  0.56501927    -0.33730
H1329       H  0.74224662  0.11738308  0.56162724     0.27640
H1330       H  0.72905036  0.22014872  0.44534808     0.27630
H1331       H  0.75228341  0.13344268  0.45176787     0.18230
H1332       H  0.76963461  0.19673439  0.54395630     0.18230
C1333       C  0.75284426  0.99038469  0.36073929    -0.07600
C1334       C  0.75164932  0.96251870  0.34482717    -0.18730
C1335       C  0.75301578  0.96141665  0.31276247     0.09600
C1336       C  0.75710327  0.98864165  0.29610036    -0.07520
C1337       C  0.75639021  0.01640917  0.31192119    -0.18760
C1338       C  0.75249204  0.01766723  0.34354201     0.09630
S1339       S  0.75112004  0.92490460  0.29403781    -0.33720
S1340       S  0.74732007  0.05494958  0.36011967    -0.33730
H1341       H  0.72620362  0.04494311  0.38211348     0.27640
H1342       H  0.73641232  0.90968997  0.31812810     0.27630
H1343       H  0.75119109  0.94137620  0.35750439     0.18230
H1344       H  0.75907254  0.03754210  0.29974665     0.18230
C1345       C  0.76396041  0.99626991  0.70724649    -0.07600
C1346       C  0.78016147  0.01819832  0.69058576    -0.18730
C1347       C  0.78186237  0.01724589  0.65890446     0.09600
C1348       C  0.76416452  0.99585108  0.64242564    -0.07520
C1349       C  0.74727643  0.97421227  0.65868999    -0.18760
C1350       C  0.74796006  0.97335333  0.69084822     0.09630
S1351       S  0.81092321  0.04073241  0.64176433    -0.33720
S1352       S  0.73244166  0.94032473  0.70947905    -0.33730
H1353       H  0.71435420  0.93024769  0.68489643     0.27640
H1354       H  0.82354235  0.01659005  0.62468060     0.27630
H1355       H  0.79387562  0.03494144  0.70244981     0.18230
H1356       H  0.73521100  0.95672940  0.64606055     0.18230
C1357       C  0.75509253  0.85003757  0.50128257    -0.07600
C1358       C  0.75367401  0.83509911  0.47285141    -0.18730
C1359       C  0.75582080  0.80327859  0.47052792     0.09600
C1360       C  0.76006351  0.78566483  0.49711258    -0.07520
C1361       C  0.75857930  0.80027825  0.52562161    -0.18760
C1362       C  0.75505957  0.83193082  0.52804223     0.09630
S1363       S  0.75522405  0.78621775  0.43315903    -0.33720
S1364       S  0.75098417  0.84744687  0.56595359    -0.33730
H1365       H  0.72979274  0.86987254  0.55706873     0.27640
H1366       H  0.73776392  0.80938607  0.41943336     0.27630
H1367       H  0.75283803  0.84840052  0.45207457     0.18230
H1368       H  0.76029983  0.78699293  0.54630301     0.18230
C1369       C  0.21271484  0.74622061  0.50332632    -0.07600
C1370       C  0.19876164  0.75241425  0.47513928    -0.18730
C1371       C  0.16741411  0.74865848  0.47063978     0.09600
C1372       C  0.14855923  0.74097260  0.49573158    -0.07520
C1373       C  0.16265288  0.73197996  0.52300524    -0.18760
C1374       C  0.19429370  0.73395811  0.52709718     0.09630
S1375       S  0.15331763  0.75524876  0.43255594    -0.33720
S1376       S  0.20781447  0.72180177  0.56401418    -0.33730
H1377       H  0.23655296  0.73513347  0.56227856     0.27640
H1378       H  0.13357013  0.72998481  0.43309603     0.27630
H1379       H  0.21230504  0.76114263  0.45646186     0.18230
H1380       H  0.14863671  0.72493187  0.54210173     0.18230
C1381       C  0.01171898  0.74324996  0.35980221    -0.07600
C1382       C  0.03727960  0.75604917  0.34543814    -0.18730
C1383       C  0.03937844  0.75811781  0.31388273     0.09600
C1384       C  0.01600611  0.74606249  0.29528772    -0.07520
C1385       C  0.99075551  0.73214519  0.30939018    -0.18760
C1386       C  0.98835913  0.73064614  0.34140422     0.09630
S1387       S  0.07206832  0.77782699  0.29898465    -0.33720
S1388       S  0.95484212  0.71306057  0.35724337    -0.33730
H1389       H  0.96941066  0.70225867  0.38373369     0.27640
H1390       H  0.08232025  0.75261387  0.28216389     0.27630
H1391       H  0.05536440  0.76627367  0.35885085     0.18230
H1392       H  0.97229150  0.72345121  0.29542019     0.18230
C1393       C  0.01436501  0.74611013  0.64193206    -0.07600
C1394       C  0.98836532  0.73564836  0.65732824    -0.18730
C1395       C  0.98612215  0.73673988  0.68929602     0.09600
C1396       C  0.01133550  0.74711233  0.70693135    -0.07520
C1397       C  0.03774682  0.75621246  0.69142152    -0.18760
C1398       C  0.03961738  0.75607682  0.65961627     0.09630
S1399       S  0.94913857  0.72758103  0.70461683    -0.33720
S1400       S  0.07383897  0.77227608  0.64375511    -0.33730
H1401       H  0.05808304  0.79708196  0.63080836     0.27640
H1402       H  0.95246099  0.74257522  0.73249848     0.27630
H1403       H  0.96867934  0.72842358  0.64419099     0.18230
H1404       H  0.05672868  0.76549824  0.70418496     0.18230
C1405       C  0.86693957  0.74346531  0.49810957    -0.07600
C1406       C  0.85019061  0.74040837  0.52539581    -0.18730
C1407       C  0.81803270  0.74096404  0.52557828     0.09600
C1408       C  0.80198438  0.74602231  0.49792184    -0.07520
C1409       C  0.81879009  0.74895834  0.47096293    -0.18760
C1410       C  0.85040066  0.74564568  0.47032763     0.09630
S1411       S  0.79958865  0.73688191  0.56216274    -0.33720
S1412       S  0.86754200  0.74457449  0.43291693    -0.33730
H1413       H  0.88729815  0.72034883  0.44025081     0.27640
H1414       H  0.76974970  0.73269996  0.55159633     0.27630
H1415       H  0.86220788  0.73844946  0.54693742     0.18230
H1416       H  0.80705417  0.75326262  0.44969614     0.18230
C1417       C  0.75174818  0.13719348  0.00606409    -0.07600
C1418       C  0.74329255  0.15136899  0.03356643    -0.18730
C1419       C  0.74007830  0.18301078  0.03602614     0.09600
C1420       C  0.74696850  0.20183474  0.01074028    -0.07520
C1421       C  0.75720957  0.18773698  0.98366903    -0.18760
C1422       C  0.76000014  0.15590737  0.98115598     0.09630
S1423       S  0.72456763  0.19791155  0.07110065    -0.33720
S1424       S  0.77358617  0.14074701  0.94539465    -0.33730
H1425       H  0.78874127  0.11575611  0.95861595     0.27640
H1426       H  0.72858720  0.17171437  0.08910767     0.27630
H1427       H  0.73673756  0.13744971  0.05281286     0.18230
H1428       H  0.76166569  0.20148994  0.96372775     0.18230
C1429       C  0.75611969  0.85420461  0.00210574    -0.07600
C1430       C  0.76640041  0.84008834  0.97513334    -0.18730
C1431       C  0.76665412  0.80813787  0.97183517     0.09600
C1432       C  0.75502440  0.78969573  0.99556959    -0.07520
C1433       C  0.74733159  0.80362783  0.02335235    -0.18760
C1434       C  0.74849719  0.83525150  0.02723500     0.09630
S1435       S  0.78116004  0.79175660  0.93699836    -0.33720
S1436       S  0.73833400  0.84935179  0.06454228    -0.33730
H1437       H  0.76393535  0.86858064  0.06650409     0.27640
H1438       H  0.79222441  0.81890198  0.92412596     0.27630
H1439       H  0.77319456  0.85423122  0.95610923     0.18230
H1440       H  0.73972589  0.78967220  0.04223080     0.18230
C1441       C  0.75673378  0.00144296  0.86058419    -0.07600
C1442       C  0.76488416  0.97447927  0.84524720    -0.18730
C1443       C  0.76396488  0.97229228  0.81331700     0.09600
C1444       C  0.75522775  0.99808705  0.79592462    -0.07520
C1445       C  0.74939787  0.02557452  0.81110165    -0.18760
C1446       C  0.75020027  0.02773123  0.84287762     0.09630
S1447       S  0.77230416  0.93520617  0.79741041    -0.33720
S1448       S  0.74020327  0.06429127  0.85876151    -0.33730
H1449       H  0.71086846  0.05432985  0.86715419     0.27640
H1450       H  0.76187621  0.94017415  0.76775366     0.27630
H1451       H  0.77028324  0.95424566  0.85832877     0.18230
H1452       H  0.74265172  0.04540657  0.79805546     0.18230
C1453       C  0.74756927  0.99640656  0.14284157    -0.07600
C1454       C  0.75927332  0.97046041  0.15738441    -0.18730
C1455       C  0.75808133  0.96706763  0.18922982     0.09600
C1456       C  0.74653971  0.99121204  0.20766316    -0.07520
C1457       C  0.73574607  0.01742327  0.19289239    -0.18760
C1458       C  0.73553428  0.02016950  0.16120573     0.09630
S1459       S  0.76874857  0.92999715  0.20317679    -0.33720
S1460       S  0.71609152  0.05317588  0.14632323    -0.33730
H1461       H  0.69400661  0.03560636  0.13092539     0.27640
H1462       H  0.75452532  0.93233645  0.23141741     0.27630
H1463       H  0.76772291  0.95170480  0.14361010     0.18230
H1464       H  0.72559811  0.03561511  0.20597738     0.18230
C1465       C  0.26034635  0.84778996  0.99343348    -0.07600
C1466       C  0.24589368  0.83288853  0.01780609    -0.18730
C1467       C  0.24684043  0.80098675  0.02096792     0.09600
C1468       C  0.26319448  0.78319490  0.99925300    -0.07520
C1469       C  0.27673016  0.79822715  0.97448786    -0.18760
C1470       C  0.27501907  0.82973211  0.97090125     0.09630
S1471       S  0.22804870  0.78583401  0.05423625    -0.33720
S1472       S  0.29440966  0.84504405  0.93810216    -0.33730
H1473       H  0.26782304  0.85898902  0.92668685     0.27640
H1474       H  0.24132673  0.75694366  0.05366964     0.27630
H1475       H  0.23465326  0.84638219  0.03525666     0.18230
H1476       H  0.28918462  0.78511395  0.95757678     0.18230
C1477       C  0.25252313  0.13098354  0.99495975    -0.07600
C1478       C  0.25306469  0.14479019  0.96606514    -0.18730
C1479       C  0.25445213  0.17638353  0.96261838     0.09600
C1480       C  0.25483073  0.19544604  0.98875389    -0.07520
C1481       C  0.25140466  0.18186654  0.01759674    -0.18760
C1482       C  0.24999838  0.15008723  0.02101468     0.09630
S1483       S  0.25711299  0.18985279  0.92394596    -0.33720
S1484       S  0.24578034  0.13574285  0.05927430    -0.33730
H1485       H  0.22587943  0.11209896  0.05064638     0.27640
H1486       H  0.24677887  0.21921603  0.92993780     0.27630
H1487       H  0.25412574  0.13080451  0.94566328     0.18230
H1488       H  0.25068940  0.19608366  0.03780928     0.18230
C1489       C  0.26256610  0.98955279  0.85357431    -0.07600
C1490       C  0.24816080  0.01390542  0.83858620    -0.18730
C1491       C  0.24962790  0.01714387  0.80666643     0.09600
C1492       C  0.26435175  0.99451122  0.78869613    -0.07520
C1493       C  0.27766324  0.96970879  0.80392250    -0.18760
C1494       C  0.27795674  0.96747133  0.83565589     0.09630
S1495       S  0.23497974  0.05212208  0.79127292    -0.33720
S1496       S  0.30201796  0.93800281  0.85130527    -0.33730
H1497       H  0.31940780  0.95858910  0.86884250     0.27640
H1498       H  0.26028365  0.05692194  0.77243241     0.27630
H1499       H  0.23721321  0.03157155  0.85202535     0.18230
H1500       H  0.28990854  0.95256912  0.79121810     0.18230
C1501       C  0.25379975  0.99333080  0.13778183    -0.07600
C1502       C  0.24029361  0.96791592  0.15166682    -0.18730
C1503       C  0.24048934  0.96409162  0.18352214     0.09600
C1504       C  0.25550606  0.98595353  0.20223244    -0.07520
C1505       C  0.26641322  0.01258338  0.18843569    -0.18760
C1506       C  0.26533681  0.01683222  0.15687846     0.09630
S1507       S  0.22172193  0.93046812  0.19758372    -0.33720
S1508       S  0.28154843  0.05183889  0.14296335    -0.33730
H1509       H  0.25530792  0.05947256  0.12606798     0.27640
H1510       H  0.23697286  0.92933776  0.22534198     0.27630
H1511       H  0.23060638  0.95014400  0.13743242     0.18230
H1512       H  0.27685934  0.03008800  0.20246869     0.18230
C1513       C  0.50775701  0.13030378  0.24967886    -0.07600
C1514       C  0.53019965  0.14496304  0.23229194    -0.18730
C1515       C  0.53115720  0.17654605  0.22937668     0.09600
C1516       C  0.50945003  0.19490351  0.24485978    -0.07520
C1517       C  0.48795782  0.18033365  0.26383929    -0.18760
C1518       C  0.48673035  0.14835007  0.26617134     0.09630
S1519       S  0.56016458  0.19108589  0.20406174    -0.33720
S1520       S  0.45748354  0.13199677  0.28987421    -0.33730
H1521       H  0.47347210  0.10502459  0.29656558     0.27640
H1522       H  0.56434757  0.21908541  0.21866732     0.27630
H1523       H  0.54641411  0.13159459  0.21922734     0.18230
H1524       H  0.47096672  0.19378699  0.27570046     0.18230
C1525       C  0.50062335  0.84858489  0.24560237    -0.07600
C1526       C  0.47363355  0.83359214  0.23701400    -0.18730
C1527       C  0.47210308  0.80192797  0.23504469     0.09600
C1528       C  0.49792900  0.78408326  0.24201686    -0.07520
C1529       C  0.52440844  0.79878747  0.25262565    -0.18760
C1530       C  0.52594242  0.83071233  0.25476732     0.09630
S1531       S  0.43672730  0.78576316  0.22225647    -0.33720
S1532       S  0.56089504  0.84708268  0.26887718    -0.33730
H1533       H  0.54667661  0.87208706  0.28317656     0.27640
H1534       H  0.43440092  0.76671941  0.24782580     0.27630
H1535       H  0.45375502  0.84658588  0.23017573     0.18230
H1536       H  0.54434590  0.78537739  0.25835474     0.18230
C1537       C  0.36174718  0.98525916  0.24700636    -0.07600
C1538       C  0.34729722  0.95848022  0.23686451    -0.18730
C1539       C  0.31555342  0.95656851  0.23401435     0.09600
C1540       C  0.29720385  0.98173602  0.24214397    -0.07520
C1541       C  0.31140204  0.00788399  0.25423566    -0.18760
C1542       C  0.34328861  0.00975836  0.25708991     0.09630
S1543       S  0.29901888  0.92197224  0.21908939    -0.33720
S1544       S  0.35889645  0.04396413  0.27363848    -0.33730
H1545       H  0.38402191  0.02933364  0.28726105     0.27640
H1546       H  0.32638045  0.90634584  0.21300961     0.27630
H1547       H  0.36099711  0.93933286  0.22946230     0.18230
H1548       H  0.29763024  0.02732246  0.26074146     0.18230
C1549       C  0.64300692  0.98458444  0.25243366    -0.07600
C1550       C  0.65812481  0.01206764  0.25864613    -0.18730
C1551       C  0.69001185  0.01428228  0.25785237     0.09600
C1552       C  0.70779634  0.98811863  0.25056813    -0.07520
C1553       C  0.69271878  0.96011967  0.24738765    -0.18760
C1554       C  0.66092753  0.95783123  0.24903308     0.09630
S1555       S  0.70511646  0.05185747  0.26479367    -0.33720
S1556       S  0.64520347  0.92009180  0.24520303    -0.33730
H1557       H  0.62350024  0.92446560  0.26848102     0.27640
H1558       H  0.73470160  0.04612934  0.25513549     0.27630
H1559       H  0.64490600  0.03263317  0.26233340     0.18230
H1560       H  0.70565348  0.93972726  0.24252305     0.18230
C1561       C  0.64190084  0.24451333  0.99840599    -0.07600
C1562       C  0.65545505  0.25609589  0.02503759    -0.18730
C1563       C  0.68718240  0.25575394  0.02940213     0.09600
C1564       C  0.70639052  0.24300012  0.00647119    -0.07520
C1565       C  0.69280439  0.23346034  0.97901864    -0.18760
C1566       C  0.66129003  0.23477765  0.97434905     0.09630
S1567       S  0.69997258  0.27060142  0.06561148    -0.33720
S1568       S  0.64780722  0.22157659  0.93775814    -0.33730
H1569       H  0.62959662  0.24755952  0.93289492     0.27640
H1570       H  0.72921933  0.25828569  0.06476638     0.27630
H1571       H  0.64099773  0.26416642  0.04343961     0.18230
H1572       H  0.70685474  0.22376788  0.96113320     0.18230
C1573       C  0.29465197  0.23740157  0.99037091    -0.07600
C1574       C  0.30791949  0.23450441  0.01945231    -0.18730
C1575       C  0.33942440  0.23733150  0.02402607     0.09600
C1576       C  0.35903208  0.24080950  0.99854404    -0.07520
C1577       C  0.34560997  0.24587230  0.96981252    -0.18760
C1578       C  0.31390700  0.24502613  0.96559081     0.09630
S1579       S  0.35268197  0.23569769  0.06292584    -0.33720
S1580       S  0.30028091  0.25340954  0.92785735    -0.33730
H1581       H  0.27525623  0.27022622  0.93809098     0.27640
H1582       H  0.37360681  0.25969604  0.05917007     0.27630
H1583       H  0.29351048  0.22993259  0.03897503     0.18230
H1584       H  0.36000566  0.24975247  0.95010193     0.18230
C1585       C  0.50116829  0.24386194  0.85883524    -0.07600
C1586       C  0.47303364  0.25077991  0.84498840    -0.18730
C1587       C  0.46961141  0.25105687  0.81311245     0.09600
C1588       C  0.49436750  0.24274924  0.79418857    -0.07520
C1589       C  0.52299983  0.23840914  0.80785180    -0.18760
C1590       C  0.52693249  0.23988965  0.83958206     0.09630
S1591       S  0.43312355  0.26191886  0.79820530    -0.33720
S1592       S  0.56534927  0.23547147  0.85349269    -0.33730
H1593       H  0.56283204  0.25971973  0.87445632     0.27640
H1594       H  0.44374405  0.29085691  0.78966494     0.27630
H1595       H  0.45321168  0.25516871  0.85910228     0.18230
H1596       H  0.54256670  0.23337462  0.79361784     0.18230
C1597       C  0.49764571  0.24265879  0.14147231    -0.07600
C1598       C  0.47457137  0.22792511  0.15804228    -0.18730
C1599       C  0.47589250  0.22548188  0.18981821     0.09600
C1600       C  0.50119106  0.23741507  0.20592703    -0.07520
C1601       C  0.52250471  0.25506239  0.18968644    -0.18760
C1602       C  0.52093766  0.25784386  0.15777780     0.09630
S1603       S  0.44457649  0.20650159  0.20834853    -0.33720
S1604       S  0.54966659  0.28044243  0.13916756    -0.33730
H1605       H  0.53134444  0.28857842  0.11407280     0.27640
H1606       H  0.44582595  0.22457793  0.23490355     0.27630
H1607       H  0.45598395  0.21678698  0.14612683     0.18230
H1608       H  0.54146858  0.26541400  0.20157641     0.18230
C1609       C  0.64913756  0.99407163  0.75412677    -0.07600
C1610       C  0.66496950  0.02057296  0.74545213    -0.18730
C1611       C  0.69706061  0.02187907  0.74599558     0.09600
C1612       C  0.71409535  0.99634055  0.75589319    -0.07520
C1613       C  0.69818294  0.97026419  0.76494894    -0.18760
C1614       C  0.66653610  0.96825182  0.76308499     0.09630
S1615       S  0.71468027  0.05767118  0.73721451    -0.33720
S1616       S  0.65051397  0.93230504  0.77466583    -0.33730
H1617       H  0.63488640  0.92824538  0.74685170     0.27640
H1618       H  0.72676217  0.04679821  0.70960284     0.27630
H1619       H  0.65224840  0.04079017  0.73914287     0.18230
H1620       H  0.71061919  0.95090257  0.77377442     0.18230
C1621       C  0.36711177  0.99884930  0.74137544    -0.07600
C1622       C  0.35142541  0.97121439  0.73712347    -0.18730
C1623       C  0.31946495  0.96977507  0.73844716     0.09600
C1624       C  0.30265835  0.99654443  0.74534385    -0.07520
C1625       C  0.31809115  0.02445306  0.74619068    -0.18760
C1626       C  0.34974266  0.02608385  0.74297913     0.09630
S1627       S  0.30240104  0.93285298  0.73209017    -0.33720
S1628       S  0.36612307  0.06370347  0.74174322    -0.33730
H1629       H  0.38842486  0.05574462  0.72001746     0.27640
H1630       H  0.27299393  0.93957001  0.74249556     0.27630
H1631       H  0.36416952  0.95021576  0.73439050     0.18230
H1632       H  0.30540139  0.04531809  0.74966428     0.18230
C1633       C  0.50140758  0.13700428  0.75041098    -0.07600
C1634       C  0.47228498  0.15012596  0.75324452    -0.18730
C1635       C  0.46805653  0.18160050  0.75515814     0.09600
C1636       C  0.49347332  0.20135443  0.75355213    -0.07520
C1637       C  0.52238679  0.18843473  0.74818756    -0.18760
C1638       C  0.52661330  0.15672127  0.74635618     0.09630
S1639       S  0.42953910  0.19413745  0.76151036    -0.33720
S1640       S  0.56476901  0.14314970  0.73947743    -0.33730
H1641       H  0.55543109  0.11871862  0.72082002     0.27640
H1642       H  0.43316292  0.22198925  0.74696133     0.27630
H1643       H  0.45241249  0.13571016  0.75576200     0.18230
H1644       H  0.54211869  0.20303745  0.74645883     0.18230
C1645       C  0.50679051  0.85650460  0.74904056    -0.07600
C1646       C  0.49456916  0.84260348  0.77471931    -0.18730
C1647       C  0.49691936  0.81137021  0.77987174     0.09600
C1648       C  0.51075298  0.79165108  0.75744474    -0.07520
C1649       C  0.52361312  0.80669442  0.73174873    -0.18760
C1650       C  0.52169738  0.83838341  0.72728776     0.09630
S1651       S  0.48202926  0.80049591  0.81658093    -0.33720
S1652       S  0.53896323  0.85431433  0.69356411    -0.33730
H1653       H  0.52109592  0.88092152  0.69264184     0.27640
H1654       H  0.49521307  0.82492877  0.83283873     0.27630
H1655       H  0.48392848  0.85682425  0.79205234     0.18230
H1656       H  0.53656914  0.79453827  0.71489856     0.18230
C1657       C  0.36790708  0.73857683  0.00016608    -0.07600
C1658       C  0.35292205  0.74827602  0.02685029    -0.18730
C1659       C  0.32116818  0.74989253  0.02852347     0.09600
C1660       C  0.30313998  0.74154992  0.00311235    -0.07520
C1661       C  0.31797703  0.72967252  0.97716689    -0.18760
C1662       C  0.34996556  0.72774207  0.97556918     0.09630
S1663       S  0.30515954  0.76402614  0.06351157    -0.33720
S1664       S  0.36639160  0.71179038  0.94138917    -0.33730
H1665       H  0.39212790  0.69947698  0.95612426     0.27640
H1666       H  0.28764847  0.73762376  0.06787880     0.27630
H1667       H  0.36597522  0.75631995  0.04627678     0.18230
H1668       H  0.30472195  0.72312911  0.95744339     0.18230
C1669       C  0.64950673  0.74507111  0.99473286    -0.07600
C1670       C  0.66466061  0.74836787  0.96663218    -0.18730
C1671       C  0.69652516  0.75038990  0.96499881     0.09600
C1672       C  0.71401013  0.74906984  0.99200021    -0.07520
C1673       C  0.69923674  0.74278973  0.01970945    -0.18760
C1674       C  0.66736679  0.74027739  0.02130982     0.09630
S1675       S  0.71441582  0.75549402  0.92831476    -0.33720
S1676       S  0.65115318  0.73128180  0.05797423    -0.33730
H1677       H  0.62743662  0.71337884  0.04581161     0.27640
H1678       H  0.68794233  0.75275759  0.91035365     0.27630
H1679       H  0.65146178  0.75115053  0.94593522     0.18230
H1680       H  0.71253371  0.74056929  0.04042018     0.18230
C1681       C  0.51187434  0.74277504  0.13731456    -0.07600
C1682       C  0.48604559  0.72928310  0.15052159    -0.18730
C1683       C  0.48163247  0.72871511  0.18231151     0.09600
C1684       C  0.50340151  0.74282768  0.20183815    -0.07520
C1685       C  0.53050074  0.75361328  0.18866882    -0.18760
C1686       C  0.53525952  0.75334787  0.15708627     0.09630
S1687       S  0.44738160  0.71008737  0.19506782    -0.33720
S1688       S  0.57084571  0.76907434  0.14402994    -0.33730
H1689       H  0.57763464  0.74362198  0.12561186     0.27640
H1690       H  0.44787352  0.72121854  0.22465048     0.27630
H1691       H  0.46836270  0.72017867  0.13579496     0.18230
H1692       H  0.54797409  0.76336714  0.20321942     0.18230
C1693       C  0.51438190  0.73536435  0.85734424    -0.07600
C1694       C  0.48779130  0.72957504  0.84024554    -0.18730
C1695       C  0.48737369  0.73329849  0.80820265     0.09600
C1696       C  0.51384515  0.74442930  0.79329162    -0.07520
C1697       C  0.54093624  0.74689021  0.81004348    -0.18760
C1698       C  0.54195496  0.74018519  0.84116189     0.09630
S1699       S  0.45121828  0.73203956  0.78844638    -0.33720
S1700       S  0.57918911  0.73930781  0.85865807    -0.33730
H1701       H  0.57143223  0.71630139  0.87960785     0.27640
H1702       H  0.43462445  0.71818426  0.81210758     0.27630
H1703       H  0.46663272  0.72532537  0.85220607     0.18230
H1704       H  0.56137892  0.75533321  0.79919559     0.18230
C1705       C  0.80227357  0.74081238  0.99273073    -0.07600
C1706       C  0.81678661  0.75565836  0.01731523    -0.18730
C1707       C  0.84878786  0.75707900  0.01939856     0.09600
C1708       C  0.86689701  0.74393532  0.99610339    -0.07520
C1709       C  0.85217971  0.73140253  0.97047287    -0.18760
C1710       C  0.82049685  0.72944703  0.96862073     0.09630
S1711       S  0.86500278  0.77526004  0.05256888    -0.33720
S1712       S  0.80524876  0.71111166  0.93500329    -0.33730
H1713       H  0.77786721  0.72756056  0.93433559     0.27640
H1714       H  0.89148944  0.78547545  0.03768809     0.27630
H1715       H  0.80320043  0.76505639  0.03570394     0.18230
H1716       H  0.86544379  0.72135456  0.95216270     0.18230
C1717       C  0.14991688  0.73712805  0.00512879    -0.07600
C1718       C  0.16442246  0.75024162  0.97972794    -0.18730
C1719       C  0.19635406  0.74970106  0.97634824     0.09600
C1720       C  0.21447981  0.73454449  0.99855208    -0.07520
C1721       C  0.19984865  0.72234328  0.02424926    -0.18760
C1722       C  0.16842348  0.72448545  0.02844349     0.09630
S1723       S  0.21119275  0.76773031  0.94249611    -0.33720
S1724       S  0.15390242  0.70892050  0.06356377    -0.33730
H1725       H  0.13840556  0.73595189  0.07137803     0.27640
H1726       H  0.24124435  0.75760731  0.94484508     0.27630
H1727       H  0.15062792  0.76023734  0.96179585     0.18230
H1728       H  0.21325114  0.71102646  0.04167197     0.18230
C1729       C  0.01178465  0.74347536  0.86111494    -0.07600
C1730       C  0.98410333  0.74721141  0.84527754    -0.18730
C1731       C  0.98282455  0.74651667  0.81325439     0.09600
C1732       C  0.00967818  0.74114234  0.79614598    -0.07520
C1733       C  0.03731821  0.73843184  0.81201619    -0.18760
C1734       C  0.03898336  0.74109359  0.84376795     0.09630
S1735       S  0.94585136  0.75005842  0.79601205    -0.33720
S1736       S  0.07670341  0.74034931  0.86016730    -0.33730
H1737       H  0.07042718  0.76380104  0.88125097     0.27640
H1738       H  0.95418508  0.77580913  0.77922061     0.27630
H1739       H  0.96297617  0.74942178  0.85791247     0.18230
H1740       H  0.05809727  0.73382020  0.79968233     0.18230
C1741       C  0.01198934  0.73928937  0.14272635    -0.07600
C1742       C  0.03636721  0.72389268  0.15669042    -0.18730
C1743       C  0.03842547  0.72079898  0.18821364     0.09600
C1744       C  0.01606842  0.73430281  0.20719614    -0.07520
C1745       C  0.99188122  0.75041567  0.19338975    -0.18760
C1746       C  0.98970100  0.75315349  0.16146386     0.09630
S1747       S  0.06934159  0.69740238  0.20199366    -0.33720
S1748       S  0.95784220  0.77408760  0.14612178    -0.33730
H1749       H  0.97311485  0.78401306  0.11973038     0.27640
H1750       H  0.07483694  0.71426136  0.22846293     0.27630
H1751       H  0.05342781  0.71248638  0.14287925     0.18230
H1752       H  0.97399849  0.76003359  0.20749288     0.18230
C1753       C  0.79533997  0.24860742  0.00499451    -0.07600
C1754       C  0.80936359  0.24309560  0.97660944    -0.18730
C1755       C  0.84117387  0.24058610  0.97372878     0.09600
C1756       C  0.86001293  0.24511254  0.99961091    -0.07520
C1757       C  0.84583799  0.24840251  0.02825694    -0.18760
C1758       C  0.81410878  0.24995311  0.03121531     0.09630
S1759       S  0.85602599  0.23187975  0.93636606    -0.33720
S1760       S  0.79932299  0.25492296  0.06912051    -0.33730
H1761       H  0.77663553  0.23306378  0.06473460     0.27640
H1762       H  0.87990482  0.21345479  0.94737912     0.27630
H1763       H  0.79563253  0.24115973  0.95623989     0.18230
H1764       H  0.85955514  0.25112403  0.04867183     0.18230
C1765       C  0.00465495  0.24148127  0.85686654    -0.07600
C1766       C  0.02929378  0.25339137  0.84023051    -0.18730
C1767       C  0.02839139  0.25554088  0.80839361     0.09600
C1768       C  0.00215572  0.24586443  0.79230790    -0.07520
C1769       C  0.97928358  0.23035757  0.80857552    -0.18760
C1770       C  0.98013968  0.22827717  0.84057041     0.09630
S1771       S  0.06131419  0.27157037  0.78981048    -0.33720
S1772       S  0.94878333  0.20950843  0.85924197    -0.33730
H1773       H  0.96588250  0.19968400  0.88458741     0.27640
H1774       H  0.05778825  0.25506145  0.76250089     0.27630
H1775       H  0.04881303  0.26283305  0.85211519     0.18230
H1776       H  0.95962907  0.22148523  0.79663798     0.18230
C1777       C  0.14171019  0.23729717  0.99981913    -0.07600
C1778       C  0.15900379  0.24790809  0.02470032    -0.18730
C1779       C  0.19083609  0.24950148  0.02333501     0.09600
C1780       C  0.20622907  0.24061649  0.99637342    -0.07520
C1781       C  0.18924454  0.22632702  0.97313369    -0.18760
C1782       C  0.15730118  0.22465400  0.97451478     0.09630
S1783       S  0.21029493  0.26396757  0.05660567    -0.33720
S1784       S  0.13779229  0.20720838  0.94273962    -0.33730
H1785       H  0.11278923  0.19698127  0.96000894     0.27640
H1786       H  0.23722644  0.24728925  0.05182212     0.27630
H1787       H  0.14767149  0.25684470  0.04480028     0.18230
H1788       H  0.20052532  0.21815435  0.95282096     0.18230
C1789       C  0.99766052  0.24495883  0.20256660    -0.07600
C1790       C  0.02078195  0.22950686  0.18648118    -0.18730
C1791       C  0.02038775  0.22723217  0.15452862     0.09600
C1792       C  0.99659986  0.24111847  0.13785160    -0.07520
C1793       C  0.97219900  0.25425521  0.15402232    -0.18760
C1794       C  0.97253012  0.25656086  0.18595512     0.09630
S1795       S  0.05127648  0.20701620  0.13640748    -0.33720
S1796       S  0.94105424  0.27539506  0.20483702    -0.33730
H1797       H  0.92455456  0.28352781  0.17852581     0.27640
H1798       H  0.03411522  0.19748768  0.11095105     0.27630
H1799       H  0.04039942  0.22082626  0.19857047     0.18230
H1800       H  0.95360482  0.26460247  0.14151107     0.18230
C1801       C  0.86347575  0.48509289  0.24773078    -0.07600
C1802       C  0.84903709  0.46208991  0.23078593    -0.18730
C1803       C  0.81749485  0.46102484  0.22740167     0.09600
C1804       C  0.79897090  0.48319473  0.24197243    -0.07520
C1805       C  0.81324649  0.50532576  0.26049424    -0.18760
C1806       C  0.84521314  0.50664954  0.26329759     0.09630
S1807       S  0.80324325  0.43109649  0.20290131    -0.33720
S1808       S  0.86125989  0.53663456  0.28640626    -0.33730
H1809       H  0.88792130  0.52065829  0.29437526     0.27640
H1810       H  0.77547664  0.42690384  0.21786868     0.27630
H1811       H  0.86254361  0.44543537  0.21843910     0.18230
H1812       H  0.79952023  0.52255685  0.27172123     0.18230
C1813       C  0.21089851  0.48822352  0.24464300    -0.07600
C1814       C  0.19463305  0.46117329  0.24013586    -0.18730
C1815       C  0.16308055  0.45973362  0.24360155     0.09600
C1816       C  0.14612110  0.48690515  0.24825464    -0.07520
C1817       C  0.16235400  0.51412547  0.25321454    -0.18760
C1818       C  0.19440162  0.51511324  0.25193363     0.09630
S1819       S  0.14656940  0.42218595  0.24149309    -0.33720
S1820       S  0.21171927  0.55194144  0.25807243    -0.33730
H1821       H  0.24223044  0.54378649  0.25404428     0.27640
H1822       H  0.12744303  0.42696401  0.26687378     0.27630
H1823       H  0.20669768  0.44047788  0.23436180     0.18230
H1824       H  0.14993524  0.53514941  0.25705885     0.18230
C1825       C  0.00986676  0.69564383  0.24950495    -0.07600
C1826       C  0.98423720  0.68205967  0.23592214    -0.18730
C1827       C  0.98050367  0.65051334  0.23500052     0.09600
C1828       C  0.00209965  0.63139053  0.24958676    -0.07520
C1829       C  0.02610540  0.64496368  0.26584942    -0.18760
C1830       C  0.03031650  0.67676911  0.26611439     0.09630
S1831       S  0.95002716  0.63661481  0.21109536    -0.33720
S1832       S  0.06327877  0.69173948  0.28562584    -0.33730
H1833       H  0.07132282  0.66497611  0.30131028     0.27640
H1834       H  0.96985169  0.62006437  0.19192540     0.27630
H1835       H  0.96810462  0.69614922  0.22356040     0.18230
H1836       H  0.04261387  0.63036092  0.27699435     0.18230
C1837       C  0.00810539  0.34980195  0.24883206    -0.07600
C1838       C  0.03255969  0.33353879  0.23593310    -0.18730
C1839       C  0.03184956  0.30174667  0.23296706     0.09600
C1840       C  0.00629957  0.28533573  0.24373530    -0.07520
C1841       C  0.98313686  0.30143640  0.25913057    -0.18760
C1842       C  0.98384976  0.33327672  0.26194965     0.09630
S1843       S  0.06325703  0.28289191  0.21400998    -0.33720
S1844       S  0.95272928  0.35147929  0.28174716    -0.33730
H1845       H  0.96992006  0.37656154  0.29198680     0.27640
H1846       H  0.08199559  0.30859474  0.21030136     0.27630
H1847       H  0.05143687  0.34592137  0.22606349     0.18230
H1848       H  0.96327475  0.28947470  0.26731663     0.18230
C1849       C  0.25062450  0.48714357  0.85777803    -0.07600
C1850       C  0.26192114  0.51328169  0.84328844    -0.18730
C1851       C  0.26147094  0.51638886  0.81137402     0.09600
C1852       C  0.25096865  0.49188023  0.79284785    -0.07520
C1853       C  0.24113116  0.46525031  0.80748888    -0.18760
C1854       C  0.24036154  0.46266343  0.83924019     0.09630
S1855       S  0.27184304  0.55348145  0.79727578    -0.33720
S1856       S  0.22255720  0.42874052  0.85390497    -0.33730
H1857       H  0.19856070  0.44512429  0.86767807     0.27640
H1858       H  0.25789340  0.55113532  0.76878784     0.27630
H1859       H  0.26938826  0.53240943  0.85709728     0.18230
H1860       H  0.23194239  0.44668395  0.79413918     0.18230
C1861       C  0.25688403  0.49054668  0.14135470    -0.07600
C1862       C  0.25960031  0.46252225  0.15668422    -0.18730
C1863       C  0.25856589  0.46070446  0.18867040     0.09600
C1864       C  0.25385656  0.48745558  0.20616718    -0.07520
C1865       C  0.25323603  0.51554142  0.19097321    -0.18760
C1866       C  0.25577520  0.51755284  0.15922127     0.09630
S1867       S  0.26108610  0.42327743  0.20517467    -0.33720
S1868       S  0.25618475  0.55545344  0.14346940    -0.33730
H1869       H  0.27927642  0.54870008  0.12217903     0.27640
H1870       H  0.27757104  0.43252462  0.23085998     0.27630
H1871       H  0.26116587  0.44156734  0.14363985     0.18230
H1872       H  0.25018683  0.53634401  0.20384449     0.18230
C1873       C  0.25764188  0.62991261  0.99770991    -0.07600
C1874       C  0.25058008  0.64503067  0.97033578    -0.18730
C1875       C  0.24933364  0.67675953  0.96865582     0.09600
C1876       C  0.25591743  0.69463705  0.99469968    -0.07520
C1877       C  0.26548316  0.67972759  0.02146948    -0.18760
C1878       C  0.26653660  0.64773767  0.02324367     0.09630
S1879       S  0.23707957  0.69273791  0.93295660    -0.33720
S1880       S  0.27847759  0.63129196  0.05895927    -0.33730
H1881       H  0.29293415  0.60598148  0.04546719     0.27640
H1882       H  0.26212197  0.71239638  0.93075591     0.27630
H1883       H  0.24404529  0.63210892  0.95026274     0.18230
H1884       H  0.27061038  0.69304243  0.04165943     0.18230
C1885       C  0.24982969  0.34822524  0.99434390    -0.07600
C1886       C  0.23309051  0.33438618  0.97077260    -0.18730
C1887       C  0.23004718  0.30288273  0.96856766     0.09600
C1888       C  0.24469414  0.28375245  0.99010928    -0.07520
C1889       C  0.26246755  0.29759621  0.01317038    -0.18760
C1890       C  0.26510803  0.32945153  0.01554784     0.09630
S1891       S  0.20595021  0.28935051  0.93805019    -0.33720
S1892       S  0.28773351  0.34464958  0.04637487    -0.33730
H1893       H  0.29630502  0.37143221  0.03107275     0.27640
H1894       H  0.22337058  0.26354009  0.93162144     0.27630
H1895       H  0.22080742  0.34830506  0.95444953     0.18230
H1896       H  0.27326844  0.28371301  0.03040830     0.18230
C1897       C  0.21080532  0.49545982  0.75163351    -0.07600
C1898       C  0.19533979  0.52219966  0.75981682    -0.18730
C1899       C  0.16363508  0.52455846  0.75844543     0.09600
C1900       C  0.14591892  0.49884864  0.74984124    -0.07520
C1901       C  0.16132701  0.47241919  0.74031153    -0.18760
C1902       C  0.19328301  0.47020162  0.74130934     0.09630
S1903       S  0.14792552  0.56067227  0.77029475    -0.33720
S1904       S  0.20884074  0.43345853  0.73138642    -0.33730
H1905       H  0.23760598  0.43754014  0.74419769     0.27640
H1906       H  0.12999130  0.56367737  0.74378908     0.27630
H1907       H  0.20801473  0.54150724  0.76838706     0.18230
H1908       H  0.14823829  0.45253849  0.73367060     0.18230
C1909       C  0.99903247  0.35368409  0.74998465    -0.07600
C1910       C  0.97584928  0.33940437  0.76671855    -0.18730
C1911       C  0.97401880  0.30784640  0.76921416     0.09600
C1912       C  0.99560970  0.28912171  0.75403028    -0.07520
C1913       C  0.01809053  0.30336212  0.73599250    -0.18760
C1914       C  0.02011189  0.33530199  0.73396069     0.09630
S1915       S  0.94378690  0.29371535  0.79324261    -0.33720
S1916       S  0.05033442  0.35112587  0.71114926    -0.33730
H1917       H  0.03479115  0.37814408  0.70364516     0.27640
H1918       H  0.93841005  0.26703324  0.77666085     0.27630
H1919       H  0.95956621  0.35299885  0.77945741     0.18230
H1920       H  0.03514043  0.28967405  0.72453881     0.18230
C1921       C  0.00862808  0.69992307  0.75550413    -0.07600
C1922       C  0.98037899  0.68508666  0.75683706    -0.18730
C1923       C  0.97777405  0.65354542  0.75335685     0.09600
C1924       C  0.00445289  0.63534991  0.75164136    -0.07520
C1925       C  0.03278333  0.65020379  0.74947775    -0.18760
C1926       C  0.03511404  0.68202596  0.75101145     0.09630
S1927       S  0.93958937  0.63846366  0.75194973    -0.33720
S1928       S  0.07279644  0.69790501  0.74982584    -0.33730
H1929       H  0.06696783  0.71395273  0.72290364     0.27640
H1930       H  0.94634983  0.61743312  0.72857552     0.27630
H1931       H  0.95988036  0.69807498  0.76096016     0.18230
H1932       H  0.05356865  0.63691136  0.74789267     0.18230
C1933       C  0.86365143  0.49502087  0.74902977    -0.07600
C1934       C  0.84777720  0.52288908  0.75035368    -0.18730
C1935       C  0.81583117  0.52388250  0.75123741     0.09600
C1936       C  0.79891141  0.49657590  0.75170333    -0.07520
C1937       C  0.81459832  0.46892508  0.74817533    -0.18760
C1938       C  0.84642141  0.46788495  0.74568141     0.09630
S1939       S  0.79786765  0.56057772  0.75219172    -0.33720
S1940       S  0.86324221  0.43107593  0.73852494    -0.33730
H1941       H  0.88588308  0.44248767  0.71887790     0.27640
H1942       H  0.78886278  0.55796996  0.72145687     0.27630
H1943       H  0.86025999  0.54412071  0.75192808     0.18230
H1944       H  0.80201346  0.44777038  0.74755577     0.18230
C1945       C  0.75140407  0.35506610  0.00071025    -0.07600
C1946       C  0.75206263  0.33760320  0.97369604    -0.18730
C1947       C  0.75304631  0.30554130  0.97440376     0.09600
C1948       C  0.75489520  0.29024447  0.00286632    -0.07520
C1949       C  0.75353435  0.30788622  0.02954921    -0.18760
C1950       C  0.74960685  0.33941022  0.02886205     0.09630
S1951       S  0.75365796  0.28627541  0.93800683    -0.33720
S1952       S  0.74277827  0.35787842  0.06507977    -0.33730
H1953       H  0.72217858  0.37932580  0.05296277     0.27640
H1954       H  0.74503613  0.25758130  0.94868284     0.27630
H1955       H  0.75295254  0.34896895  0.95178059     0.18230
H1956       H  0.75612254  0.29736607  0.05152954     0.18230
C1957       C  0.75602451  0.63675760  0.00015629    -0.07600
C1958       C  0.76582981  0.65350904  0.02575087    -0.18730
C1959       C  0.76775225  0.68531818  0.02512369     0.09600
C1960       C  0.76006416  0.70128102  0.99818965    -0.07520
C1961       C  0.74684463  0.68489554  0.97392664    -0.18760
C1962       C  0.74480595  0.65296221  0.97456959     0.09630
S1963       S  0.78077220  0.70399367  0.05943626    -0.33720
S1964       S  0.72842673  0.63434072  0.94171231    -0.33730
H1965       H  0.71614931  0.60980893  0.95824845     0.27640
H1966       H  0.76434611  0.73106526  0.05470678     0.27630
H1967       H  0.77366315  0.64175822  0.04602962     0.18230
H1968       H  0.73932990  0.69681782  0.95369293     0.18230
C1969       C  0.75678930  0.49097391  0.20271944    -0.07600
C1970       C  0.74127585  0.46870599  0.18557681    -0.18730
C1971       C  0.73905738  0.47081095  0.15368384     0.09600
C1972       C  0.75214813  0.49597650  0.13846466    -0.07520
C1973       C  0.76376013  0.52012989  0.15610518    -0.18760
C1974       C  0.76616633  0.51791808  0.18793686     0.09630
S1975       S  0.72014652  0.44023592  0.13372805    -0.33720
S1976       S  0.78133952  0.54966364  0.20944516    -0.33730
H1977       H  0.78582819  0.56944189  0.18463598     0.27640
H1978       H  0.71024175  0.45831228  0.10913900     0.27630
H1979       H  0.73223392  0.44875416  0.19680797     0.18230
H1980       H  0.77291405  0.54002267  0.14483453     0.18230
C1981       C  0.75396735  0.49702299  0.85744854    -0.07600
C1982       C  0.75505942  0.46912764  0.84155806    -0.18730
C1983       C  0.75688325  0.46806924  0.80963908     0.09600
C1984       C  0.75805182  0.49531130  0.79270467    -0.07520
C1985       C  0.75451303  0.52306188  0.80830013    -0.18760
C1986       C  0.75158331  0.52421153  0.84016275     0.09630
S1987       S  0.75876056  0.43133660  0.79176639    -0.33720
S1988       S  0.74508234  0.56115820  0.85700754    -0.33730
H1989       H  0.72530192  0.55016171  0.87974227     0.27640
H1990       H  0.72691936  0.43049501  0.78775732     0.27630
H1991       H  0.75603372  0.44787578  0.85404707     0.18230
H1992       H  0.75407604  0.54415124  0.79560695     0.18230
C1993       C  0.25580985  0.49503604  0.63909133    -0.07600
C1994       C  0.25355529  0.52271485  0.65521907    -0.18730
C1995       C  0.25458635  0.52364003  0.68725092     0.09600
C1996       C  0.25895767  0.49647687  0.70399212    -0.07520
C1997       C  0.26003595  0.46887247  0.68790846    -0.18760
C1998       C  0.25693355  0.46762016  0.65617402     0.09630
S1999       S  0.25210056  0.56032137  0.70522150    -0.33720
S2000       S  0.25533407  0.43007535  0.63944360    -0.33730
H2001       H  0.23216683  0.43786404  0.61857839     0.27640
H2002       H  0.22186923  0.55535909  0.71441815     0.27630
H2003       H  0.25217783  0.54400433  0.64282052     0.18230
H2004       H  0.26385488  0.44783995  0.70000627     0.18230
C2005       C  0.25036653  0.49950804  0.35902430    -0.07600
C2006       C  0.23884291  0.47299964  0.34525054    -0.18730
C2007       C  0.24062133  0.46830585  0.31358502     0.09600
C2008       C  0.25544382  0.49038945  0.29510465    -0.07520
C2009       C  0.26435783  0.51793371  0.30867750    -0.18760
C2010       C  0.26063984  0.52336159  0.33984689     0.09630
S2011       S  0.22590764  0.43241622  0.29985475    -0.33720
S2012       S  0.27105816  0.56077977  0.35327303    -0.33730
H2013       H  0.24514751  0.56362675  0.37204300     0.27640
H2014       H  0.24232913  0.43138913  0.27254640     0.27630
H2015       H  0.23008744  0.45486758  0.35951928     0.18230
H2016       H  0.27507775  0.53534846  0.29487721     0.18230
C2017       C  0.25589808  0.63717883  0.49895675    -0.07600
C2018       C  0.25799139  0.65391286  0.47164832    -0.18730
C2019       C  0.26047244  0.68583820  0.47184004     0.09600
C2020       C  0.26247335  0.70156328  0.50011383    -0.07520
C2021       C  0.26018296  0.68462230  0.52706223    -0.18760
C2022       C  0.25442979  0.65343322  0.52679128     0.09630
S2023       S  0.26295368  0.70418822  0.43514290    -0.33720
S2024       S  0.24533452  0.63612004  0.56295575    -0.33730
H2025       H  0.22465620  0.61504625  0.55030125     0.27640
H2026       H  0.25462375  0.73335833  0.44490916     0.27630
H2027       H  0.25882293  0.64203148  0.44993871     0.18230
H2028       H  0.26306653  0.69549712  0.54888161     0.18230
C2029       C  0.25809100  0.28985144  0.49719864    -0.07600
C2030       C  0.26728570  0.30495823  0.52396200    -0.18730
C2031       C  0.26743798  0.33666046  0.52644747     0.09600
C2032       C  0.25799799  0.35476218  0.50137301    -0.07520
C2033       C  0.24733159  0.33986596  0.47506568    -0.18760
C2034       C  0.24743576  0.30795949  0.47244438     0.09630
S2035       S  0.28260006  0.35187465  0.56156862    -0.33720
S2036       S  0.23509280  0.29338575  0.43601010    -0.33730
H2037       H  0.24362810  0.26338027  0.44082735     0.27640
H2038       H  0.30821045  0.36454314  0.54696989     0.27630
H2039       H  0.27572129  0.29198189  0.54312792     0.18230
H2040       H  0.24002328  0.35332908  0.45566154     0.18230
C2041       C  0.50838605  0.63763044  0.74663674    -0.07600
C2042       C  0.53694317  0.65127940  0.75152937    -0.18730
C2043       C  0.54089771  0.68299471  0.75064528     0.09600
C2044       C  0.51570042  0.70213576  0.74348388    -0.07520
C2045       C  0.48701850  0.68839021  0.73977012    -0.18760
C2046       C  0.48277618  0.65696693  0.74280222     0.09630
S2047       S  0.57913428  0.69603260  0.75786167    -0.33720
S2048       S  0.44398987  0.64354750  0.74125194    -0.33730
H2049       H  0.44787034  0.62308663  0.76566580     0.27640
H2050       H  0.57218742  0.72675156  0.76004318     0.27630
H2051       H  0.55678672  0.63699549  0.75521509     0.18230
H2052       H  0.46740305  0.70234716  0.73440868     0.18230
C2053       C  0.71041115  0.49039023  0.74518669    -0.07600
C2054       C  0.69467430  0.51367386  0.76085208    -0.18730
C2055       C  0.66273297  0.51376581  0.76308973     0.09600
C2056       C  0.64575293  0.49004425  0.74943391    -0.07520
C2057       C  0.66160291  0.46550768  0.73620966    -0.18760
C2058       C  0.69338027  0.46540258  0.73387569     0.09630
S2059       S  0.64503368  0.54522602  0.78282181    -0.33720
S2060       S  0.71024005  0.43299464  0.71494198    -0.33730
H2061       H  0.73788361  0.43404180  0.73092168     0.27640
H2062       H  0.61935238  0.52869402  0.79251377     0.27630
H2063       H  0.70702673  0.53294753  0.76991589     0.18230
H2064       H  0.64910839  0.44686194  0.72585665     0.18230
C2065       C  0.29971813  0.49665080  0.74513549    -0.07600
C2066       C  0.31505102  0.52464964  0.74395369    -0.18730
C2067       C  0.34671802  0.52670111  0.74706477     0.09600
C2068       C  0.36447148  0.49974663  0.74852061    -0.07520
C2069       C  0.34910356  0.47171592  0.75091689    -0.18760
C2070       C  0.31720085  0.46995015  0.74954794     0.09630
S2071       S  0.36257135  0.56454900  0.74827984    -0.33720
S2072       S  0.30047110  0.43271815  0.75090077    -0.33730
H2073       H  0.28973990  0.43717236  0.78076019     0.27640
H2074       H  0.38397999  0.55737236  0.77114968     0.27630
H2075       H  0.30241163  0.54539374  0.74023692     0.18230
H2076       H  0.36202892  0.45071349  0.75241890     0.18230
C2077       C  0.49753282  0.35453270  0.74711559    -0.07600
C2078       C  0.47180711  0.34041295  0.73429690    -0.18730
C2079       C  0.46908002  0.30880680  0.73273204     0.09600
C2080       C  0.49211193  0.28993220  0.74525976    -0.07520
C2081       C  0.51678739  0.30404146  0.76032492    -0.18760
C2082       C  0.52013134  0.33592747  0.76057865     0.09630
S2083       S  0.43568561  0.29455831  0.71353053    -0.33720
S2084       S  0.55399621  0.35162515  0.77749745    -0.33730
H2085       H  0.56720105  0.35760456  0.74884129     0.27640
H2086       H  0.43212792  0.26977462  0.73300454     0.27630
H2087       H  0.45408400  0.35406330  0.72378700     0.18230
H2088       H  0.53466327  0.29022570  0.77022788     0.18230
C2089       C  0.75214639  0.63246426  0.50165937    -0.07600
C2090       C  0.76833102  0.64619793  0.47781144    -0.18730
C2091       C  0.76936269  0.67806545  0.47450035     0.09600
C2092       C  0.75415634  0.69695245  0.49608036    -0.07520
C2093       C  0.73998246  0.68301160  0.52114324    -0.18760
C2094       C  0.73802899  0.65140280  0.52379111     0.09630
S2095       S  0.78758373  0.69304076  0.44090380    -0.33720
S2096       S  0.71350582  0.63737710  0.55362490    -0.33730
H2097       H  0.69467653  0.62113145  0.53322815     0.27640
H2098       H  0.80317977  0.66632894  0.43233477     0.27630
H2099       H  0.77877651  0.63172627  0.46068893     0.18230
H2100       H  0.72800863  0.69697032  0.53771248     0.18230
C2101       C  0.75450134  0.49581854  0.63919423    -0.07600
C2102       C  0.74093327  0.52053123  0.65454325    -0.18730
C2103       C  0.73899047  0.52159247  0.68636057     0.09600
C2104       C  0.75103053  0.49741745  0.70397373    -0.07520
C2105       C  0.76692352  0.47396496  0.68869897    -0.18760
C2106       C  0.76878719  0.47292124  0.65669167     0.09630
S2107       S  0.71955062  0.55406292  0.70256204    -0.33720
S2108       S  0.78900929  0.44144639  0.63962174    -0.33730
H2109       H  0.79826121  0.45752261  0.61347425     0.27640
H2110       H  0.73546838  0.55404852  0.73031481     0.27630
H2111       H  0.73010641  0.53861545  0.64166566     0.18230
H2112       H  0.77647533  0.45525885  0.70148073     0.18230
C2113       C  0.75494423  0.34918592  0.49537251    -0.07600
C2114       C  0.76150852  0.33420264  0.52298639    -0.18730
C2115       C  0.75959539  0.30236069  0.52567677     0.09600
C2116       C  0.75090062  0.28458858  0.49994530    -0.07520
C2117       C  0.74588567  0.29942982  0.47211002    -0.18760
C2118       C  0.74905786  0.33098257  0.46914209     0.09630
S2119       S  0.76420080  0.28705690  0.56368653    -0.33720
S2120       S  0.74375742  0.34607214  0.43127689    -0.33730
H2121       H  0.76924599  0.36544797  0.43329267     0.27640
H2122       H  0.75077054  0.25846948  0.55876470     0.27630
H2123       H  0.76616911  0.34755056  0.54331345     0.18230
H2124       H  0.73801372  0.28646539  0.45259853     0.18230
C2125       C  0.75088551  0.49246311  0.35587004    -0.07600
C2126       C  0.76672438  0.46848127  0.34171767    -0.18730
C2127       C  0.76674111  0.46471290  0.30981048     0.09600
C2128       C  0.75073857  0.48592666  0.29116283    -0.07520
C2129       C  0.73716310  0.51121563  0.30545110    -0.18760
C2130       C  0.73616796  0.51427750  0.33714695     0.09630
S2131       S  0.78691542  0.43178924  0.29574245    -0.33720
S2132       S  0.71233634  0.54450689  0.35168638    -0.33730
H2133       H  0.69382267  0.52457715  0.36867408     0.27640
H2134       H  0.77214825  0.43023694  0.26777880     0.27630
H2135       H  0.77812531  0.45167213  0.35580214     0.18230
H2136       H  0.72529402  0.52799350  0.29175490     0.18230
C2137       C  0.64883841  0.74153031  0.49221348    -0.07600
C2138       C  0.66378121  0.72989241  0.46632350    -0.18730
C2139       C  0.69549155  0.72756654  0.46484768     0.09600
C2140       C  0.71366394  0.73776083  0.48955905    -0.07520
C2141       C  0.69881813  0.75084009  0.51497301    -0.18760
C2142       C  0.66683259  0.75313598  0.51641208     0.09630
S2143       S  0.71067115  0.70920389  0.43139110    -0.33720
S2144       S  0.65047526  0.77048422  0.54994286    -0.33730
H2145       H  0.62497220  0.78264368  0.53469074     0.27640
H2146       H  0.73663106  0.72745453  0.43010963     0.27630
H2147       H  0.65063474  0.72071025  0.44747245     0.18230
H2148       H  0.71210795  0.75794762  0.53456430     0.18230
C2149       C  0.50963368  0.74419265  0.63924457    -0.07600
C2150       C  0.53846610  0.74410486  0.65325135    -0.18730
C2151       C  0.54189116  0.74397148  0.68501701     0.09600
C2152       C  0.51583078  0.74385695  0.70418614    -0.07520
C2153       C  0.48701424  0.74667591  0.69034738    -0.18760
C2154       C  0.48360904  0.74710442  0.65835532     0.09630
S2155       S  0.58049282  0.74480408  0.69897543    -0.33720
S2156       S  0.44536800  0.75056907  0.64375656    -0.33730
H2157       H  0.45365545  0.77059181  0.62013441     0.27640
H2158       H  0.57445033  0.76272599  0.72483525     0.27630
H2159       H  0.55885915  0.74304704  0.63933683     0.18230
H2160       H  0.46684148  0.74754781  0.70458418     0.18230
C2161       C  0.36672513  0.74622397  0.49928708    -0.07600
C2162       C  0.35171192  0.74400951  0.52757835    -0.18730
C2163       C  0.31983045  0.74339309  0.52959149     0.09600
C2164       C  0.30189252  0.74403625  0.50276815    -0.07520
C2165       C  0.31680832  0.74880235  0.47476675    -0.18760
C2166       C  0.34868988  0.75091661  0.47285445     0.09630
S2167       S  0.30357218  0.74070540  0.56708706    -0.33720
S2168       S  0.36466725  0.75927414  0.43592049    -0.33730
H2169       H  0.38863171  0.77713506  0.44765809     0.27640
H2170       H  0.28221697  0.76372085  0.56124926     0.27630
H2171       H  0.36483750  0.74145530  0.54839138     0.18230
H2172       H  0.30377678  0.75038232  0.45392907     0.18230
C2173       C  0.50830749  0.74338273  0.35526949    -0.07600
C2174       C  0.53319556  0.73202862  0.33848867    -0.18730
C2175       C  0.53231374  0.72996209  0.30663148     0.09600
C2176       C  0.50583672  0.73907862  0.29063874    -0.07520
C2177       C  0.48269929  0.75422612  0.30699663    -0.18760
C2178       C  0.48349814  0.75619280  0.33904035     0.09630
S2179       S  0.56571491  0.71503195  0.28782079    -0.33720
S2180       S  0.45178157  0.77443416  0.35780102    -0.33730
H2181       H  0.46887375  0.78506365  0.38285878     0.27640
H2182       H  0.56175406  0.73180884  0.26079867     0.27630
H2183       H  0.55300224  0.72305524  0.35025018     0.18230
H2184       H  0.46303968  0.76309223  0.29501033     0.18230
C2185       C  0.64590101  0.48574658  0.24671923    -0.07600
C2186       C  0.66056775  0.45842085  0.25482226    -0.18730
C2187       C  0.69226520  0.45630909  0.25653534     0.09600
C2188       C  0.71047598  0.48185567  0.24982030    -0.07520
C2189       C  0.69611286  0.50855496  0.23933907    -0.18760
C2190       C  0.66415465  0.51067324  0.23743824     0.09630
S2191       S  0.70809946  0.42061341  0.26875624    -0.33720
S2192       S  0.64824088  0.54588402  0.22360250    -0.33730
H2193       H  0.62291085  0.53211939  0.20945915     0.27640
H2194       H  0.72721306  0.41844122  0.24313843     0.27630
H2195       H  0.64731466  0.43874738  0.26155695     0.18230
H2196       H  0.70984325  0.52828925  0.23381063     0.18230
C2197       C  0.36368459  0.48704699  0.25085259    -0.07600
C2198       C  0.34945153  0.46352284  0.26707038    -0.18730
C2199       C  0.31788328  0.46246406  0.27098601     0.09600
C2200       C  0.29910400  0.48483155  0.25718664    -0.07520
C2201       C  0.31332613  0.50827762  0.24045792    -0.18760
C2202       C  0.34521284  0.50940872  0.23686441     0.09630
S2203       S  0.30271510  0.43212421  0.29411768    -0.33720
S2204       S  0.36086206  0.53976523  0.21416559    -0.33730
H2205       H  0.38678015  0.52345652  0.20452436     0.27640
H2206       H  0.33002027  0.42398691  0.30892410     0.27630
H2207       H  0.36328889  0.44632999  0.27809738     0.18230
H2208       H  0.29966313  0.52640940  0.23086825     0.18230
C2209       C  0.50692396  0.34810394  0.25069952    -0.07600
C2210       C  0.53449919  0.33327180  0.25762600    -0.18730
C2211       C  0.53648571  0.30159174  0.25949680     0.09600
C2212       C  0.51046729  0.28344021  0.25419231    -0.07520
C2213       C  0.48324983  0.29793631  0.24524777    -0.18760
C2214       C  0.48127220  0.32989640  0.24315128     0.09630
S2215       S  0.57289087  0.28590139  0.26981074    -0.33720
S2216       S  0.44537680  0.34582844  0.23107858    -0.33730
H2217       H  0.45859022  0.37013341  0.21492817     0.27640
H2218       H  0.57277690  0.26475255  0.24578073     0.27630
H2219       H  0.55467264  0.34643386  0.26307684     0.18230
H2220       H  0.46316913  0.28429309  0.24068179     0.18230
C2221       C  0.50264540  0.63142728  0.24839360    -0.07600
C2222       C  0.47865804  0.64607644  0.26372081    -0.18730
C2223       C  0.47702086  0.67765773  0.26617249     0.09600
C2224       C  0.49949143  0.69601094  0.25200201    -0.07520
C2225       C  0.52259509  0.68145948  0.23493021    -0.18760
C2226       C  0.52478019  0.64948376  0.23366224     0.09630
S2227       S  0.44595536  0.69210026  0.28910042    -0.33720
S2228       S  0.55630826  0.63285656  0.21339860    -0.33730
H2229       H  0.57074599  0.62325176  0.24043486     0.27640
H2230       H  0.44226592  0.71978514  0.27398723     0.27630
H2231       H  0.46154408  0.63275961  0.27549962     0.18230
H2232       H  0.54010546  0.69496683  0.22403661     0.18230
C2233       C  0.49780660  0.24765429  0.70566224    -0.07600
C2234       C  0.47351521  0.23543891  0.68861894    -0.18730
C2235       C  0.47457606  0.23390986  0.65659920     0.09600
C2236       C  0.50066477  0.24460229  0.64093057    -0.07520
C2237       C  0.52619438  0.25340524  0.65823780    -0.18760
C2238       C  0.52511425  0.25498367  0.69013625     0.09630
S2239       S  0.44148030  0.21908190  0.63719421    -0.33720
S2240       S  0.55928077  0.26764786  0.70924576    -0.33730
H2241       H  0.55361503  0.25274827  0.73691212     0.27640
H2242       H  0.45794742  0.20651636  0.61262471     0.27630
H2243       H  0.45282240  0.22861803  0.70001707     0.18230
H2244       H  0.54676897  0.26092993  0.64685960     0.18230
C2245       C  0.49963013  0.24155630  0.35891847    -0.07600
C2246       C  0.52624015  0.23003990  0.34524984    -0.18730
C2247       C  0.53014198  0.22971075  0.31340358     0.09600
C2248       C  0.50706867  0.24226727  0.29438052    -0.07520
C2249       C  0.47948441  0.25117494  0.30797389    -0.18760
C2250       C  0.47519508  0.25042256  0.33957694     0.09630
S2251       S  0.56541869  0.21341894  0.29993235    -0.33720
S2252       S  0.43853869  0.26314210  0.35315555    -0.33730
H2253       H  0.43436762  0.23742070  0.37181833     0.27640
H2254       H  0.56112008  0.21914370  0.26913658     0.27630
H2255       H  0.54479317  0.22224060  0.35963504     0.18230
H2256       H  0.46112258  0.25963365  0.29371975     0.18230
C2257       C  0.36211934  0.24275799  0.49966256    -0.07600
C2258       C  0.34710785  0.24288122  0.47132734    -0.18730
C2259       C  0.31530896  0.24488177  0.46920112     0.09600
C2260       C  0.29731942  0.24696132  0.49599865    -0.07520
C2261       C  0.31245125  0.24451885  0.52425513    -0.18760
C2262       C  0.34413389  0.24137596  0.52640511     0.09630
S2263       S  0.29992138  0.24656844  0.43137844    -0.33720
S2264       S  0.35984666  0.23685899  0.56419626    -0.33730
H2265       H  0.38289979  0.21656178  0.55477881     0.27640
H2266       H  0.28832491  0.21686638  0.43316411     0.27630
H2267       H  0.36028652  0.24319873  0.45040723     0.18230
H2268       H  0.30004624  0.24670855  0.54526920     0.18230
C2269       C  0.70836563  0.24511306  0.50850872    -0.07600
C2270       C  0.69220403  0.26951117  0.52220650    -0.18730
C2271       C  0.66076473  0.27282886  0.51970710     0.09600
C2272       C  0.64367179  0.25085663  0.50375405    -0.07520
C2273       C  0.65853256  0.22552723  0.49172915    -0.18760
C2274       C  0.68978921  0.22063112  0.49715426     0.09630
S2275       S  0.64436252  0.30727337  0.53516825    -0.33720
S2276       S  0.69637223  0.18155604  0.50715095    -0.33730
H2277       H  0.68082032  0.16922850  0.48181826     0.27640
H2278       H  0.62528047  0.31215764  0.50983541     0.27630
H2279       H  0.70400738  0.28761749  0.53388319     0.18230
H2280       H  0.64462769  0.20733630  0.48237241     0.18230
loop_ 
_geom_bond_atom_site_label_1 
_geom_bond_atom_site_label_2 
_geom_bond_distance 
_geom_bond_site_symmetry_2 
_ccdc_geom_bond_type 
N1            N2   1.320       .  A
N1            N7   1.314       .  A
N1          Mn30   2.190       .  S
N2            C9   1.351       .  A
N3            N5   1.322       .  A
N3            N4   1.317       .  A
N3          Mn19   2.198       .  S
N4           C10   1.347       .  A
N5            N6   1.322       .  A
N5          Mn30   2.205       .  S
N6           C10   1.350       .  A
N7            N8   1.319       .  A
N7          Mn19   2.193       .  S
N8            C9   1.351       .  A
C9          C144   1.459       .  S
C10        C2272   1.472       .  S
N11          N17   1.318       .  A
N11          N12   1.322       .  A
N11         Mn41   2.206       .  S
N12          C20   1.353       .  A
N13          N14   1.318       .  A
N13          N15   1.312       .  A
N13         Mn19   2.181       .  S
N14          C21   1.349       .  A
N15          N16   1.319       .  A
N15         Mn41   2.184       .  S
N16          C21   1.350       .  A
N17          N18   1.321       .  A
N17         Mn19   2.213       .  S
N18          C20   1.354       .  A
Mn19        Cl43   2.524       .  S
C20        C2236   1.491       .  S
C21         C201   1.453       .  S
N22          N23   1.324       .  A
N22          N28   1.319       .  A
N22         Mn30   2.221       .  S
N23          C31   1.356       .  A
N24          N26   1.313       .  A
N24          N25   1.319       .  A
N24         Mn42   2.189       .  S
N25          C32   1.351       .  A
N26          N27   1.318       .  A
N26         Mn30   2.181       .  S
N27          C32   1.349       .  A
N28          N29   1.318       .  A
N28         Mn42   2.198       .  S
N29          C31   1.348       .  A
Mn30        Cl43   2.545       .  S
C31        C2245   1.493       .  S
C32          C66   1.455       .  S
N33          N34   1.317       .  A
N33          N39   1.313       .  A
N33         Mn41   2.182       .  S
N34          C44   1.349       .  A
N35          N36   1.320       .  A
N35          N37   1.318       .  A
N35         Mn42   2.206       .  S
N36          C45   1.354       .  A
N37          N38   1.319       .  A
N37         Mn41   2.201       .  S
N38          C45   1.352       .  A
N39          N40   1.319       .  A
N39         Mn42   2.182       .  S
N40          C44   1.350       .  A
Mn41        Cl43   2.543       .  S
Mn42        Cl43   2.528       .  S
C44         C234   1.452       .  S
C45        C2257   1.491       .  S
N46          N47   1.320       .  A
N46          N52   1.314       .  A
N46         Mn75   2.191       .  S
N47          C54   1.351       .  A
N48          N50   1.320       .  A
N48          N49   1.318       .  A
N48         Mn64   2.205       .  S
N49          C55   1.352       .  A
N50          N51   1.324       .  A
N50         Mn75   2.217       .  S
N51          C55   1.355       .  A
N52          N53   1.319       .  A
N52         Mn64   2.190       .  S
N53          C54   1.350       .  A
C54         C156   1.458       .  S
C55        C2185   1.492       .  S
N56          N62   1.318       .  A
N56          N57   1.324       .  A
N56         Mn86   2.212       .  S
N57          C65   1.354       .  A
N58          N59   1.319       .  A
N58          N60   1.313       .  A
N58         Mn64   2.193       .  S
N59          C66   1.351       .  A
N60          N61   1.318       .  A
N60         Mn86   2.179       .  S
N61          C66   1.349       .  A
N62          N63   1.319       .  A
N62         Mn64   2.208       .  S
N63          C65   1.353       .  A
Mn64        Cl88   2.526       .  S
C65        C2209   1.496       .  S
N67          N68   1.324       .  A
N67          N73   1.321       .  A
N67         Mn75   2.216       .  S
N68          C76   1.354       .  A
N69          N71   1.314       .  A
N69          N70   1.321       .  A
N69         Mn87   2.205       .  S
N70          C77   1.352       .  A
N71          N72   1.320       .  A
N71         Mn75   2.192       .  S
N72          C77   1.351       .  A
N73          N74   1.317       .  A
N73         Mn87   2.206       .  S
N74          C76   1.351       .  A
Mn75        Cl88   2.553       .  S
C76        C2221   1.487       .  S
C77          C99   1.465       .  S
N78          N79   1.320       .  A
N78          N84   1.314       .  A
N78         Mn86   2.198       .  S
N79          C89   1.351       .  A
N80          N81   1.325       .  A
N80          N82   1.320       .  A
N80         Mn87   2.218       .  S
N81          C90   1.355       .  A
N82          N83   1.317       .  A
N82         Mn86   2.201       .  S
N83          C90   1.351       .  A
N84          N85   1.320       .  A
N84         Mn87   2.184       .  S
N85          C89   1.350       .  A
Mn86        Cl88   2.540       .  S
Mn87        Cl88   2.534       .  S
C89         C257   1.460       .  S
C90        C2197   1.488       .  S
N91          N92   1.320       .  A
N91          N97   1.314       .  A
N91        Mn120   2.197       .  S
N92          C99   1.352       .  A
N93          N95   1.320       .  A
N93          N94   1.324       .  A
N93        Mn109   2.216       .  S
N94         C100   1.355       .  A
N95          N96   1.320       .  A
N95        Mn120   2.210       .  S
N96         C100   1.352       .  A
N97          N98   1.321       .  A
N97        Mn109   2.196       .  S
N98          C99   1.352       .  A
C100       C2173   1.491       .  S
N101        N107   1.321       .  A
N101        N102   1.321       .  A
N101       Mn131   2.213       .  S
N102        C110   1.353       .  A
N103        N104   1.318       .  A
N103        N105   1.314       .  A
N103       Mn109   2.181       .  S
N104        C111   1.349       .  A
N105        N106   1.319       .  A
N105       Mn131   2.193       .  S
N106        C111   1.351       .  A
N107        N108   1.322       .  A
N107       Mn109   2.218       .  S
N108        C110   1.354       .  A
Mn109      Cl133   2.551       .  S
C110       C2161   1.496       .  S
C111        C269   1.454       .  S
N112        N113   1.318       .  A
N112        N118   1.320       .  A
N112       Mn120   2.208       .  S
N113        C121   1.351       .  A
N114        N116   1.314       .  A
N114        N115   1.319       .  A
N114       Mn132   2.184       .  S
N115        C122   1.349       .  A
N116        N117   1.320       .  A
N116       Mn120   2.198       .  S
N117        C122   1.352       .  A
N118        N119   1.325       .  A
N118       Mn132   2.217       .  S
N119        C121   1.355       .  A
Mn120      Cl133   2.530       .  S
C121       C2137   1.492       .  S
C122        C179   1.459       .  S
N123        N124   1.319       .  A
N123        N129   1.314       .  A
N123       Mn131   2.190       .  S
N124        C134   1.351       .  A
N125        N126   1.321       .  A
N125        N127   1.320       .  A
N125       Mn132   2.219       .  S
N126        C135   1.355       .  A
N127        N128   1.324       .  A
N127       Mn131   2.214       .  S
N128        C135   1.353       .  A
N129        N130   1.320       .  A
N129       Mn132   2.189       .  S
N130        C134   1.350       .  A
Mn131      Cl133   2.537       .  S
Mn132      Cl133   2.549       .  S
C134        C212   1.457       .  S
C135       C2149   1.501       .  S
N136        N137   1.319       .  A
N136        N142   1.314       .  A
N136       Mn165   2.191       .  S
N137        C144   1.350       .  A
N138        N140   1.321       .  A
N138        N139   1.319       .  A
N138       Mn154   2.207       .  S
N139        C145   1.349       .  A
N140        N141   1.325       .  A
N140       Mn165   2.225       .  S
N141        C145   1.357       .  A
N142        N143   1.320       .  A
N142       Mn154   2.196       .  S
N143        C144   1.351       .  A
C145       C2113   1.499       .  S
N146        N152   1.321       .  A
N146        N147   1.320       .  A
N146       Mn176   2.205       .  S
N147        C155   1.350       .  A
N148        N149   1.319       .  A
N148        N150   1.313       .  A
N148       Mn154   2.188       .  S
N149        C156   1.351       .  A
N150        N151   1.319       .  A
N150       Mn176   2.190       .  S
N151        C156   1.350       .  A
N152        N153   1.323       .  A
N152       Mn154   2.216       .  S
N153        C155   1.353       .  A
Mn154      Cl178   2.531       .  S
C155       C2125   1.487       .  S
N157        N158   1.325       .  A
N157        N163   1.320       .  A
N157       Mn165   2.224       .  S
N158        C166   1.357       .  A
N159        N161   1.314       .  A
N159        N160   1.318       .  A
N159       Mn177   2.185       .  S
N160        C167   1.349       .  A
N161        N162   1.320       .  A
N161       Mn165   2.193       .  S
N162        C167   1.352       .  A
N163        N164   1.317       .  A
N163       Mn177   2.196       .  S
N164        C166   1.349       .  A
Mn165      Cl178   2.555       .  S
C166       C2101   1.487       .  S
C167        C224   1.457       .  S
N168        N169   1.319       .  A
N168        N174   1.313       .  A
N168       Mn176   2.181       .  S
N169        C179   1.349       .  A
N170        N171   1.318       .  A
N170        N172   1.319       .  A
N170       Mn177   2.193       .  S
N171        C180   1.348       .  A
N172        N173   1.323       .  A
N172       Mn176   2.213       .  S
N173        C180   1.354       .  A
N174        N175   1.320       .  A
N174       Mn177   2.198       .  S
N175        C179   1.353       .  A
Mn176      Cl178   2.544       .  S
Mn177      Cl178   2.521       .  S
C180       C2089   1.485       .  S
N181        N182   1.319       .  A
N181        N187   1.313       .  A
N181       Mn210   2.189       .  S
N182        C189   1.351       .  A
N183        N185   1.318       .  A
N183        N184   1.321       .  A
N183       Mn199   2.204       .  S
N184        C190   1.354       .  A
N185        N186   1.319       .  A
N185       Mn210   2.205       .  S
N186        C190   1.352       .  A
N187        N188   1.319       .  A
N187       Mn199   2.185       .  S
N188        C189   1.350       .  A
C189        C246   1.457       .  S
C190       C2068   1.493       .  S
N191        N197   1.319       .  A
N191        N192   1.325       .  A
N191       Mn221   2.215       .  S
N192        C200   1.355       .  A
N193        N194   1.318       .  A
N193        N195   1.313       .  A
N193       Mn199   2.186       .  S
N194        C201   1.350       .  A
N195        N196   1.318       .  A
N195       Mn221   2.182       .  S
N196        C201   1.350       .  A
N197        N198   1.318       .  A
N197       Mn199   2.202       .  S
N198        C200   1.351       .  A
Mn199      Cl223   2.532       .  S
C200       C2077   1.490       .  S
N202        N203   1.320       .  A
N202        N208   1.320       .  A
N202       Mn210   2.206       .  S
N203        C211   1.351       .  A
N204        N206   1.314       .  A
N204        N205   1.321       .  A
N204       Mn222   2.199       .  S
N205        C212   1.352       .  A
N206        N207   1.318       .  A
N206       Mn210   2.181       .  S
N207        C212   1.348       .  A
N208        N209   1.322       .  A
N208       Mn222   2.214       .  S
N209        C211   1.355       .  A
Mn210      Cl223   2.536       .  S
C211       C2041   1.495       .  S
N213        N214   1.320       .  A
N213        N219   1.314       .  A
N213       Mn221   2.193       .  S
N214        C224   1.351       .  A
N215        N216   1.323       .  A
N215        N217   1.321       .  A
N215       Mn222   2.220       .  S
N216        C225   1.354       .  A
N217        N218   1.319       .  A
N217       Mn221   2.205       .  S
N218        C225   1.351       .  A
N219        N220   1.318       .  A
N219       Mn222   2.186       .  S
N220        C224   1.350       .  A
Mn221      Cl223   2.541       .  S
Mn222      Cl223   2.541       .  S
C225       C2056   1.487       .  S
N226        N227   1.319       .  A
N226        N232   1.314       .  A
N226       Mn255   2.188       .  S
N227        C234   1.351       .  A
N228        N230   1.320       .  A
N228        N229   1.318       .  A
N228       Mn244   2.200       .  S
N229        C235   1.348       .  A
N230        N231   1.323       .  A
N230       Mn255   2.213       .  S
N231        C235   1.355       .  A
N232        N233   1.317       .  A
N232       Mn244   2.180       .  S
N233        C234   1.348       .  A
C235       C2032   1.492       .  S
N236        N242   1.318       .  A
N236        N237   1.324       .  A
N236       Mn266   2.214       .  S
N237        C245   1.357       .  A
N238        N239   1.319       .  A
N238        N240   1.312       .  A
N238       Mn244   2.191       .  S
N239        C246   1.351       .  A
N240        N241   1.319       .  A
N240       Mn266   2.181       .  S
N241        C246   1.350       .  A
N242        N243   1.317       .  A
N242       Mn244   2.194       .  S
N243        C245   1.349       .  A
Mn244      Cl268   2.520       .  S
C245       C1993   1.494       .  S
N247        N248   1.323       .  A
N247        N253   1.319       .  A
N247       Mn255   2.219       .  S
N248        C256   1.357       .  A
N249        N251   1.314       .  A
N249        N250   1.320       .  A
N249       Mn267   2.196       .  S
N250        C257   1.352       .  A
N251        N252   1.319       .  A
N251       Mn255   2.188       .  S
N252        C257   1.350       .  A
N253        N254   1.316       .  A
N253       Mn267   2.195       .  S
N254        C256   1.348       .  A
Mn255      Cl268   2.549       .  S
C256       C2005   1.489       .  S
N258        N259   1.318       .  A
N258        N264   1.314       .  A
N258       Mn266   2.186       .  S
N259        C269   1.349       .  A
N260        N261   1.322       .  A
N260        N262   1.318       .  A
N260       Mn267   2.202       .  S
N261        C270   1.354       .  A
N262        N263   1.317       .  A
N262       Mn266   2.200       .  S
N263        C270   1.351       .  A
N264        N265   1.319       .  A
N264       Mn267   2.188       .  S
N265        C269   1.351       .  A
Mn266      Cl268   2.542       .  S
Mn267      Cl268   2.529       .  S
C270       C2017   1.489       .  S
N271        N272   1.319       .  A
N271        N277   1.314   1_554  A
N271       Mn300   2.188       .  S
N272        C279   1.350   1_554  A
N273        N275   1.320   1_556  A
N273        N274   1.322       .  A
N273       Mn289   2.211       .  S
N274        C280   1.354       .  A
N275        N276   1.321       .  A
N275       Mn300   2.213       .  S
N276        C280   1.354   1_554  A
N277        N278   1.319       .  A
N277       Mn289   2.191       .  S
N278        C279   1.351       .  A
C279        C504   1.458   1_556  S
C280       C1957   1.492   1_556  S
N281        N287   1.320       .  A
N281        N282   1.322       .  A
N281       Mn311   2.214       .  S
N282        C290   1.355       .  A
N283        N284   1.318       .  A
N283        N285   1.314       .  A
N283       Mn289   2.185       .  S
N284        C291   1.350       .  A
N285        N286   1.319       .  A
N285       Mn311   2.186       .  S
N286        C291   1.350       .  A
N287        N288   1.320       .  A
N287       Mn289   2.209       .  S
N288        C290   1.352       .  A
Mn289      Cl313   2.538       .  S
C290       C1981   1.494       .  S
C291        C336   1.453       .  S
N292        N293   1.320       .  A
N292        N298   1.319       .  A
N292       Mn300   2.207       .  S
N293        C301   1.353       .  A
N294        N296   1.313       .  A
N294        N295   1.320       .  A
N294       Mn312   2.187       .  S
N295        C302   1.350       .  A
N296        N297   1.320       .  A
N296       Mn300   2.196       .  S
N297        C302   1.352       .  A
N298        N299   1.322       .  A
N298       Mn312   2.210       .  S
N299        C301   1.353       .  A
Mn300      Cl313   2.539   1_554  S
C301       C1972   1.487       .  S
C302        C426   1.460       .  S
N303        N304   1.319       .  A
N303        N309   1.314   1_556  A
N303       Mn311   2.188       .  S
N304        C314   1.350       .  A
N305        N306   1.316       .  A
N305        N307   1.319   1_554  A
N305       Mn312   2.202       .  S
N306        C315   1.349   1_554  A
N307        N308   1.325       .  A
N307       Mn311   2.215       .  S
N308        C315   1.357       .  A
N309        N310   1.320       .  A
N309       Mn312   2.194       .  S
N310        C314   1.351   1_554  A
Mn311      Cl313   2.547       .  S
Mn312      Cl313   2.534   1_554  S
C314        C459   1.459       .  S
C315       C1945   1.495   1_556  S
N316        N317   1.321       .  A
N316        N322   1.314   1_455  A
N316       Mn345   2.191       .  S
N317        C324   1.351       .  A
N318        N320   1.321   1_655  A
N318        N319   1.316       .  A
N318       Mn334   2.203       .  S
N319        C325   1.349   1_655  A
N320        N321   1.325       .  A
N320       Mn345   2.222       .  S
N321        C325   1.356       .  A
N322        N323   1.319       .  A
N322       Mn334   2.192       .  S
N323        C324   1.350   1_655  A
C324        C471   1.460       .  S
C325       C1909   1.486   1_455  S
N326        N332   1.318       .  A
N326        N327   1.322       .  A
N326       Mn356   2.209       .  S
N327        C335   1.355       .  A
N328        N329   1.319       .  A
N328        N330   1.313       .  A
N328       Mn334   2.188       .  S
N329        C336   1.351       .  A
N330        N331   1.317       .  A
N330       Mn356   2.178       .  S
N331        C336   1.348       .  A
N332        N333   1.319       .  A
N332       Mn334   2.204       .  S
N333        C335   1.352       .  A
Mn334      Cl358   2.522   1_655  S
C335       C1933   1.494       .  S
N337        N338   1.325       .  A
N337        N343   1.320       .  A
N337       Mn345   2.224       .  S
N338        C346   1.358       .  A
N339        N341   1.314       .  A
N339        N340   1.319       .  A
N339       Mn357   2.194       .  S
N340        C347   1.351       .  A
N341        N342   1.320       .  A
N341       Mn345   2.189       .  S
N342        C347   1.351       .  A
N343        N344   1.316       .  A
N343       Mn357   2.194       .  S
N344        C346   1.346       .  A
Mn345      Cl358   2.555       .  S
C346       C1900   1.493       .  S
C347        C381   1.459       .  S
N348        N349   1.319       .  A
N348        N354   1.312   1_655  A
N348       Mn356   2.185       .  S
N349        C359   1.350   1_655  A
N350        N351   1.321       .  A
N350        N352   1.318   1_455  A
N350       Mn357   2.209       .  S
N351        C360   1.354       .  A
N352        N353   1.319       .  A
N352       Mn356   2.198       .  S
N353        C360   1.351   1_655  A
N354        N355   1.318       .  A
N354       Mn357   2.184       .  S
N355        C359   1.350       .  A
Mn356      Cl358   2.547   1_655  S
Mn357      Cl358   2.523       .  S
C359        C527   1.455       .  S
C360       C1924   1.492       .  S
N361        N362   1.321       .  A
N361        N367   1.313   1_554  A
N361       Mn390   2.194       .  S
N362        C369   1.352       .  A
N363        N365   1.320   1_556  A
N363        N364   1.316       .  A
N363       Mn379   2.198       .  S
N364        C370   1.349       .  A
N365        N366   1.325       .  A
N365       Mn390   2.219       .  S
N366        C370   1.356   1_554  A
N367        N368   1.319       .  A
N367       Mn379   2.190       .  S
N368        C369   1.350   1_556  A
C369        C494   1.461   1_554  S
C370       C1885   1.485       .  S
N371        N377   1.319       .  A
N371        N372   1.323       .  A
N371       Mn401   2.211       .  S
N372        C380   1.355       .  A
N373        N374   1.320       .  A
N373        N375   1.313       .  A
N373       Mn379   2.192       .  S
N374        C381   1.351       .  A
N375        N376   1.319       .  A
N375       Mn401   2.186       .  S
N376        C381   1.350       .  A
N377        N378   1.318       .  A
N377       Mn379   2.198       .  S
N378        C380   1.348       .  A
Mn379      Cl403   2.523   1_556  S
C380       C1849   1.491       .  S
N382        N383   1.323       .  A
N382        N388   1.321       .  A
N382       Mn390   2.220       .  S
N383        C391   1.356       .  A
N384        N386   1.314       .  A
N384        N385   1.319       .  A
N384       Mn402   2.188       .  S
N385        C392   1.350       .  A
N386        N387   1.319       .  A
N386       Mn390   2.192       .  S
N387        C392   1.351       .  A
N388        N389   1.318       .  A
N388       Mn402   2.205       .  S
N389        C391   1.350       .  A
Mn390      Cl403   2.551       .  S
C391       C1861   1.495       .  S
C392        C437   1.457       .  S
N393        N394   1.318       .  A
N393        N399   1.313   1_556  A
N393       Mn401   2.191       .  S
N394        C404   1.351   1_556  A
N395        N396   1.324       .  A
N395        N397   1.320   1_554  A
N395       Mn402   2.216       .  S
N396        C405   1.355   1_554  A
N397        N398   1.319       .  A
N397       Mn401   2.209       .  S
N398        C405   1.353       .  A
N399        N400   1.319       .  A
N399       Mn402   2.181       .  S
N400        C404   1.349       .  A
Mn401      Cl403   2.544   1_556  S
Mn402      Cl403   2.534       .  S
C404        C539   1.455       .  S
C405       C1873   1.494       .  S
N406        N407   1.319       .  A
N406        N412   1.314   1_455  A
N406       Mn435   2.187       .  S
N407        C414   1.350       .  A
N408        N410   1.322   1_655  A
N408        N409   1.319       .  A
N408       Mn424   2.204       .  S
N409        C415   1.349   1_655  A
N410        N411   1.322       .  A
N410       Mn435   2.218       .  S
N411        C415   1.353       .  A
N412        N413   1.321       .  A
N412       Mn424   2.202       .  S
N413        C414   1.352   1_655  A
C414        C516   1.461       .  S
C415       C1828   1.486       .  S
N416        N422   1.319       .  A
N416        N417   1.317       .  A
N416       Mn446   2.199       .  S
N417        C425   1.350       .  A
N418        N419   1.319       .  A
N418        N420   1.314       .  A
N418       Mn424   2.184       .  S
N419        C426   1.350       .  A
N420        N421   1.320       .  A
N420       Mn446   2.201       .  S
N421        C426   1.352       .  A
N422        N423   1.325       .  A
N422       Mn424   2.218       .  S
N423        C425   1.355       .  A
Mn424      Cl448   2.536   1_655  S
C425       C1801   1.485       .  S
N427        N428   1.325       .  A
N427        N433   1.319       .  A
N427       Mn435   2.217       .  S
N428        C436   1.357       .  A
N429        N431   1.314       .  A
N429        N430   1.318       .  A
N429       Mn447   2.181       .  S
N430        C437   1.349       .  A
N431        N432   1.320       .  A
N431       Mn435   2.196       .  S
N432        C437   1.352       .  A
N433        N434   1.316       .  A
N433       Mn447   2.196       .  S
N434        C436   1.348       .  A
Mn435      Cl448   2.548       .  S
C436       C1816   1.494       .  S
N438        N439   1.318       .  A
N438        N444   1.313   1_655  A
N438       Mn446   2.181       .  S
N439        C449   1.350   1_655  A
N440        N441   1.319       .  A
N440        N442   1.318   1_455  A
N440       Mn447   2.197       .  S
N441        C450   1.351       .  A
N442        N443   1.323       .  A
N442       Mn446   2.214       .  S
N443        C450   1.355   1_655  A
N444        N445   1.319       .  A
N444       Mn447   2.191       .  S
N445        C449   1.351       .  A
Mn446      Cl448   2.539   1_655  S
Mn447      Cl448   2.525       .  S
C449        C482   1.456       .  S
C450       C1837   1.487       .  S
N451        N452   1.319       .  A
N451        N457   1.313   1_554  A
N451       Mn480   2.188       .  S
N452        C459   1.350   1_554  A
N453        N455   1.319   1_556  A
N453        N454   1.324       .  A
N453       Mn469   2.219       .  S
N454        C460   1.356       .  A
N455        N456   1.318       .  A
N455       Mn480   2.201       .  S
N456        C460   1.351   1_554  A
N457        N458   1.320       .  A
N457       Mn469   2.192       .  S
N458        C459   1.352       .  A
C460       C1756   1.496       .  S
N461        N467   1.321   1_455  A
N461        N462   1.320       .  A
N461       Mn491   2.210       .  S
N462        C470   1.352       .  A
N463        N464   1.319       .  A
N463        N465   1.314   1_655  A
N463       Mn469   2.189       .  S
N464        C471   1.350   1_655  A
N465        N466   1.321       .  A
N465       Mn491   2.197       .  S
N466        C471   1.352       .  A
N467        N468   1.323       .  A
N467       Mn469   2.220       .  S
N468        C470   1.355   1_655  A
Mn469      Cl493   2.551   1_655  S
C470       C1765   1.488       .  S
N472        N473   1.319       .  A
N472        N478   1.319   1_655  A
N472       Mn480   2.199       .  S
N473        C481   1.351       .  A
N474        N476   1.313   1_455  A
N474        N475   1.319       .  A
N474       Mn492   2.183       .  S
N475        C482   1.350       .  A
N476        N477   1.319       .  A
N476       Mn480   2.189       .  S
N477        C482   1.351   1_655  A
N478        N479   1.323       .  A
N478       Mn492   2.216       .  S
N479        C481   1.355   1_455  A
Mn480      Cl493   2.527   1_654  S
C481       C1792   1.487       .  S
N483        N484   1.320       .  A
N483        N489   1.314   1_556  A
N483       Mn491   2.193       .  S
N484        C494   1.351       .  A
N485        N486   1.321       .  A
N485        N487   1.320   1_554  A
N485       Mn492   2.208       .  S
N486        C495   1.353   1_554  A
N487        N488   1.322       .  A
N487       Mn491   2.216       .  S
N488        C495   1.354       .  A
N489        N490   1.320       .  A
N489       Mn492   2.193       .  S
N490        C494   1.351   1_554  A
Mn491      Cl493   2.533       .  S
Mn492      Cl493   2.550   1_554  S
C495       C1777   1.489       .  S
N496        N497   1.320       .  A
N496        N502   1.314   1_556  A
N496       Mn525   2.196       .  S
N497        C504   1.351   1_556  A
N498        N500   1.321   1_554  A
N498        N499   1.325       .  A
N498       Mn514   2.220       .  S
N499        C505   1.355   1_554  A
N500        N501   1.317       .  A
N500       Mn525   2.204       .  S
N501        C505   1.350       .  A
N502        N503   1.319       .  A
N502       Mn514   2.186       .  S
N503        C504   1.350       .  A
C505       C1708   1.489       .  S
N506        N512   1.320   1_455  A
N506        N507   1.315       .  A
N506       Mn536   2.198       .  S
N507        C515   1.349       .  A
N508        N509   1.321       .  A
N508        N510   1.314   1_655  A
N508       Mn514   2.192       .  S
N509        C516   1.351   1_655  A
N510        N511   1.319       .  A
N510       Mn536   2.194       .  S
N511        C516   1.351       .  A
N512        N513   1.325       .  A
N512       Mn514   2.216       .  S
N513        C515   1.356   1_655  A
Mn514      Cl538   2.557   1_655  S
C515       C1741   1.485       .  S
N517        N518   1.323       .  A
N517        N523   1.318   1_655  A
N517       Mn525   2.214       .  S
N518        C526   1.356   1_655  A
N519        N521   1.313   1_455  A
N519        N520   1.318       .  A
N519       Mn537   2.185       .  S
N520        C527   1.350       .  A
N521        N522   1.319       .  A
N521       Mn525   2.186       .  S
N522        C527   1.350   1_655  A
N523        N524   1.318       .  A
N523       Mn537   2.197       .  S
N524        C526   1.350       .  A
Mn525      Cl538   2.526   1_656  S
C526       C1729   1.494       .  S
N528        N529   1.320       .  A
N528        N534   1.313   1_554  A
N528       Mn536   2.192       .  S
N529        C539   1.352       .  A
N530        N531   1.324       .  A
N530        N532   1.318   1_556  A
N530       Mn537   2.209       .  S
N531        C540   1.355   1_556  A
N532        N533   1.318       .  A
N532       Mn536   2.203       .  S
N533        C540   1.350       .  A
N534        N535   1.317       .  A
N534       Mn537   2.179       .  S
N535        C539   1.349   1_556  A
Mn536      Cl538   2.517       .  S
Mn537      Cl538   2.545   1_556  S
C540       C1717   1.492       .  S
N541        N542   1.323       .  A
N541        N547   1.315       .  A
N541       Mn570   2.205       .  S
N542        C549   1.354       .  A
N543        N545   1.319       .  A
N543        N544   1.316       .  A
N543       Mn559   2.200       .  S
N544        C550   1.349       .  A
N545        N546   1.327       .  A
N545       Mn570   2.234       .  S
N546        C550   1.361       .  A
N547        N548   1.319       .  A
N547       Mn559   2.194       .  S
N548        C549   1.350       .  A
C549        C606   1.466       .  S
C550       C1693   1.498       .  S
N551        N557   1.318   1_554  A
N551        N552   1.322       .  A
N551       Mn581   2.205       .  S
N552        C560   1.354   1_554  A
N553        N554   1.321       .  A
N553        N555   1.313   1_556  A
N553       Mn559   2.194       .  S
N554        C561   1.352       .  A
N555        N556   1.317       .  A
N555       Mn581   2.179       .  S
N556        C561   1.348   1_554  A
N557        N558   1.320       .  A
N557       Mn559   2.208       .  S
N558        C560   1.354       .  A
Mn559      Cl583   2.529       .  S
C560       C1669   1.494       .  S
C561        C786   1.456       .  S
N562        N563   1.325       .  A
N562        N568   1.322   1_556  A
N562       Mn570   2.225       .  S
N563        C571   1.356       .  A
N564        N566   1.315   1_554  A
N564        N565   1.320       .  A
N564       Mn582   2.197       .  S
N565        C572   1.350   1_554  A
N566        N567   1.321       .  A
N566       Mn570   2.203       .  S
N567        C572   1.353       .  A
N568        N569   1.318       .  A
N568       Mn582   2.205       .  S
N569        C571   1.351   1_554  A
Mn570      Cl583   2.558       .  S
C571       C1657   1.492   1_556  S
C572        C729   1.464       .  S
N573        N574   1.318       .  A
N573        N579   1.313       .  A
N573       Mn581   2.186       .  S
N574        C584   1.350       .  A
N575        N576   1.324       .  A
N575        N577   1.319       .  A
N575       Mn582   2.222       .  S
N576        C585   1.356       .  A
N577        N578   1.319       .  A
N577       Mn581   2.201       .  S
N578        C585   1.350       .  A
N579        N580   1.320       .  A
N579       Mn582   2.185       .  S
N580        C584   1.350       .  A
Mn581      Cl583   2.547   1_554  S
Mn582      Cl583   2.532   1_554  S
C584        C684   1.456       .  S
C585       C1681   1.495       .  S
N586        N587   1.318       .  A
N586        N592   1.314   1_545  A
N586       Mn615   2.183       .  S
N587        C594   1.348   1_545  A
N588        N590   1.320   1_565  A
N588        N589   1.316       .  A
N588       Mn604   2.204       .  S
N589        C595   1.347       .  A
N590        N591   1.326       .  A
N590       Mn615   2.216       .  S
N591        C595   1.356   1_545  A
N592        N593   1.321       .  A
N592       Mn604   2.202       .  S
N593        C594   1.353       .  A
C594        C809   1.459       .  S
C595       C1609   1.495       .  S
N596        N602   1.319       .  A
N596        N597   1.319       .  A
N596       Mn626   2.205       .  S
N597        C605   1.353       .  A
N598        N599   1.320       .  A
N598        N600   1.314       .  A
N598       Mn604   2.197       .  S
N599        C606   1.352       .  A
N600        N601   1.322       .  A
N600       Mn626   2.200       .  S
N601        C606   1.352       .  A
N602        N603   1.322       .  A
N602       Mn604   2.211       .  S
N603        C605   1.352       .  A
Mn604      Cl628   2.524       .  S
C605       C1645   1.475       .  S
N607        N608   1.324       .  A
N607        N613   1.319       .  A
N607       Mn615   2.216       .  S
N608        C616   1.356       .  A
N609        N611   1.313       .  A
N609        N610   1.318       .  A
N609       Mn627   2.185       .  S
N610        C617   1.350       .  A
N611        N612   1.318       .  A
N611       Mn615   2.182       .  S
N612        C617   1.349       .  A
N613        N614   1.317       .  A
N613       Mn627   2.203       .  S
N614        C616   1.351       .  A
Mn615      Cl628   2.555   1_545  S
C616       C1633   1.495       .  S
C617        C639   1.452       .  S
N618        N619   1.320       .  A
N618        N624   1.314   1_565  A
N618       Mn626   2.190       .  S
N619        C629   1.351       .  A
N620        N621   1.318       .  A
N620        N622   1.317   1_545  A
N620       Mn627   2.195       .  S
N621        C630   1.350   1_545  A
N622        N623   1.324       .  A
N622       Mn626   2.215       .  S
N623        C630   1.357       .  A
N624        N625   1.319       .  A
N624       Mn627   2.192       .  S
N625        C629   1.351   1_545  A
Mn626      Cl628   2.549       .  S
Mn627      Cl628   2.522   1_545  S
C629        C752   1.458       .  S
C630       C1621   1.493       .  S
N631        N632   1.318       .  A
N631        N637   1.312       .  A
N631       Mn660   2.180       .  S
N632        C639   1.350       .  A
N633        N635   1.319       .  A
N633        N634   1.323       .  A
N633       Mn649   2.213       .  S
N634        C640   1.355       .  A
N635        N636   1.320       .  A
N635       Mn660   2.208       .  S
N636        C640   1.351       .  A
N637        N638   1.318       .  A
N637       Mn649   2.183       .  S
N638        C639   1.350       .  A
C640       C1585   1.497       .  S
N641        N647   1.319   1_554  A
N641        N642   1.321       .  A
N641       Mn671   2.215       .  S
N642        C650   1.353   1_554  A
N643        N644   1.318       .  A
N643        N645   1.313   1_556  A
N643       Mn649   2.184       .  S
N644        C651   1.349       .  A
N645        N646   1.319       .  A
N645       Mn671   2.186       .  S
N646        C651   1.351   1_554  A
N647        N648   1.321       .  A
N647       Mn649   2.207       .  S
N648        C650   1.354       .  A
Mn649      Cl673   2.544   1_556  S
C650       C1576   1.496       .  S
C651        C764   1.453       .  S
N652        N653   1.318       .  A
N652        N658   1.320   1_556  A
N652       Mn660   2.197       .  S
N653        C661   1.348       .  A
N654        N656   1.314   1_554  A
N654        N655   1.320       .  A
N654       Mn672   2.193       .  S
N655        C662   1.351       .  A
N656        N657   1.319       .  A
N656       Mn660   2.188       .  S
N657        C662   1.350   1_556  A
N658        N659   1.324       .  A
N658       Mn672   2.223       .  S
N659        C661   1.356   1_554  A
Mn660      Cl673   2.530   1_556  S
C661       C1561   1.493       .  S
C662        C797   1.458       .  S
N663        N664   1.321       .  A
N663        N669   1.314       .  A
N663       Mn671   2.202       .  S
N664        C674   1.352       .  A
N665        N666   1.323       .  A
N665        N667   1.321       .  A
N665       Mn672   2.220       .  S
N666        C675   1.355       .  A
N667        N668   1.319       .  A
N667       Mn671   2.205       .  S
N668        C675   1.351       .  A
N669        N670   1.321       .  A
N669       Mn672   2.197       .  S
N670        C674   1.352       .  A
Mn671      Cl673   2.533       .  S
Mn672      Cl673   2.550       .  S
C674        C719   1.467       .  S
C675       C1597   1.486       .  S
N676        N677   1.320       .  A
N676        N682   1.312       .  A
N676       Mn705   2.195       .  S
N677        C684   1.352       .  A
N678        N680   1.317       .  A
N678        N679   1.323       .  A
N678       Mn694   2.207       .  S
N679        C685   1.354       .  A
N680        N681   1.318       .  A
N680       Mn705   2.201       .  S
N681        C685   1.352       .  A
N682        N683   1.317       .  A
N682       Mn694   2.174       .  S
N683        C684   1.349       .  A
C685       C1525   1.489       .  S
N686        N692   1.318   1_545  A
N686        N687   1.324       .  A
N686       Mn716   2.227       .  S
N687        C695   1.358   1_545  A
N688        N689   1.318       .  A
N688        N690   1.313   1_565  A
N688       Mn694   2.187       .  S
N689        C696   1.350       .  A
N690        N691   1.319       .  A
N690       Mn716   2.187       .  S
N691        C696   1.350   1_545  A
N692        N693   1.318       .  A
N692       Mn694   2.189       .  S
N693        C695   1.348       .  A
Mn694      Cl718   2.544       .  S
C695       C1549   1.495       .  S
C696        C774   1.455       .  S
N697        N698   1.318       .  A
N697        N703   1.320   1_565  A
N697       Mn705   2.203       .  S
N698        C706   1.351       .  A
N699        N701   1.314   1_545  A
N699        N700   1.321       .  A
N699       Mn717   2.199       .  S
N700        C707   1.353   1_545  A
N701        N702   1.317       .  A
N701       Mn705   2.181       .  S
N702        C707   1.348       .  A
N703        N704   1.325       .  A
N703       Mn717   2.220       .  S
N704        C706   1.356   1_545  A
Mn705      Cl718   2.523       .  S
C706       C1537   1.493       .  S
C707        C741   1.457       .  S
N708        N709   1.322       .  A
N708        N714   1.315       .  A
N708       Mn716   2.210       .  S
N709        C719   1.353       .  A
N710        N711   1.325       .  A
N710        N712   1.322       .  A
N710       Mn717   2.225       .  S
N711        C720   1.355       .  A
N712        N713   1.317       .  A
N712       Mn716   2.206       .  S
N713        C720   1.350       .  A
N714        N715   1.320       .  A
N714       Mn717   2.192       .  S
N715        C719   1.351       .  A
Mn716      Cl718   2.531   1_545  S
Mn717      Cl718   2.555   1_545  S
C720       C1513   1.487       .  S
N721        N722   1.320       .  A
N721        N727   1.314   1_556  A
N721       Mn750   2.191       .  S
N722        C729   1.350       .  A
N723        N725   1.321   1_554  A
N723        N724   1.324       .  A
N723       Mn739   2.219       .  S
N724        C730   1.355   1_554  A
N725        N726   1.318       .  A
N725       Mn750   2.204       .  S
N726        C730   1.348       .  A
N727        N728   1.321       .  A
N727       Mn739   2.203       .  S
N728        C729   1.353   1_554  A
C730       C1465   1.491       .  S
N731        N737   1.321   1_545  A
N731        N732   1.317       .  A
N731       Mn761   2.198       .  S
N732        C740   1.347   1_545  A
N733        N734   1.319       .  A
N733        N735   1.314   1_565  A
N733       Mn739   2.192       .  S
N734        C741   1.351       .  A
N735        N736   1.319       .  A
N735       Mn761   2.185       .  S
N736        C741   1.349   1_545  A
N737        N738   1.324       .  A
N737       Mn739   2.227       .  S
N738        C740   1.356       .  A
Mn739      Cl763   2.549   1_554  S
C740       C1501   1.491       .  S
N742        N743   1.319       .  A
N742        N748   1.320   1_565  A
N742       Mn750   2.208       .  S
N743        C751   1.350       .  A
N744        N746   1.313   1_545  A
N744        N745   1.318       .  A
N744       Mn762   2.183       .  S
N745        C752   1.350   1_545  A
N746        N747   1.320       .  A
N746       Mn750   2.194       .  S
N747        C752   1.352       .  A
N748        N749   1.322       .  A
N748       Mn762   2.205       .  S
N749        C751   1.352   1_545  A
Mn750      Cl763   2.525       .  S
C751       C1489   1.487       .  S
N753        N754   1.318       .  A
N753        N759   1.312   1_554  A
N753       Mn761   2.176       .  S
N754        C764   1.349   1_554  A
N755        N756   1.319       .  A
N755        N757   1.318   1_556  A
N755       Mn762   2.207       .  S
N756        C765   1.354       .  A
N757        N758   1.322       .  A
N757       Mn761   2.206       .  S
N758        C765   1.353   1_554  A
N759        N760   1.318       .  A
N759       Mn762   2.188       .  S
N760        C764   1.351       .  A
Mn761      Cl763   2.532   1_544  S
Mn762      Cl763   2.543   1_545  S
C765       C1477   1.495       .  S
N766        N767   1.319       .  A
N766        N772   1.313   1_545  A
N766       Mn795   2.187       .  S
N767        C774   1.350   1_545  A
N768        N770   1.319   1_565  A
N768        N769   1.322       .  A
N768       Mn784   2.208       .  S
N769        C775   1.353       .  A
N770        N771   1.318       .  A
N770       Mn795   2.197       .  S
N771        C775   1.348   1_545  A
N772        N773   1.318       .  A
N772       Mn784   2.183       .  S
N773        C774   1.350       .  A
C775       C1453   1.486       .  S
N776        N782   1.320   1_556  A
N776        N777   1.325       .  A
N776       Mn806   2.225       .  S
N777        C785   1.357   1_556  A
N778        N779   1.318       .  A
N778        N780   1.314   1_554  A
N778       Mn784   2.190       .  S
N779        C786   1.350   1_554  A
N780        N781   1.320       .  A
N780       Mn806   2.187       .  S
N781        C786   1.350       .  A
N782        N783   1.318       .  A
N782       Mn784   2.202       .  S
N783        C785   1.348       .  A
Mn784      Cl808   2.533   1_554  S
C785       C1429   1.498       .  S
N787        N788   1.318       .  A
N787        N793   1.317   1_554  A
N787       Mn795   2.202       .  S
N788        C796   1.353       .  A
N789        N791   1.313   1_556  A
N789        N790   1.319       .  A
N789       Mn807   2.189       .  S
N790        C797   1.352   1_556  A
N791        N792   1.319       .  A
N791       Mn795   2.187       .  S
N792        C797   1.350       .  A
N793        N794   1.324       .  A
N793       Mn807   2.211       .  S
N794        C796   1.355   1_556  A
Mn795      Cl808   2.529   1_544  S
C796       C1417   1.494       .  S
N798        N799   1.320       .  A
N798        N804   1.314   1_565  A
N798       Mn806   2.188       .  S
N799        C809   1.350       .  A
N800        N801   1.316       .  A
N800        N802   1.320   1_545  A
N800       Mn807   2.197       .  S
N801        C810   1.347   1_545  A
N802        N803   1.322       .  A
N802       Mn806   2.217       .  S
N803        C810   1.356       .  A
N804        N805   1.319       .  A
N804       Mn807   2.196       .  S
N805        C809   1.351   1_545  A
Mn806      Cl808   2.547       .  S
Mn807      Cl808   2.535   1_545  S
C810       C1441   1.489   1_565  S
N811        N812   1.320       .  A
N811        N817   1.314   1_455  A
N811       Mn840   2.194       .  S
N812        C819   1.351       .  A
N813        N815   1.321   1_655  A
N813        N814   1.323       .  A
N813       Mn829   2.220       .  S
N814        C820   1.355   1_655  A
N815        N816   1.318       .  A
N815       Mn840   2.200       .  S
N816        C820   1.347       .  A
N817        N818   1.319       .  A
N817       Mn829   2.192       .  S
N818        C819   1.351   1_655  A
C819       C1044   1.459       .  S
C820       C1393   1.491       .  S
N821        N827   1.320       .  A
N821        N822   1.316       .  A
N821       Mn851   2.202       .  S
N822        C830   1.348       .  A
N823        N824   1.319       .  A
N823        N825   1.314       .  A
N823       Mn829   2.192       .  S
N824        C831   1.351       .  A
N825        N826   1.317       .  A
N825       Mn851   2.181       .  S
N826        C831   1.348       .  A
N827        N828   1.326       .  A
N827       Mn829   2.223       .  S
N828        C830   1.357       .  A
Mn829      Cl853   2.546   1_655  S
C830       C1405   1.498       .  S
C831        C876   1.453       .  S
N832        N833   1.322       .  A
N832        N838   1.316       .  A
N832       Mn840   2.213       .  S
N833        C841   1.357       .  A
N834        N836   1.313       .  A
N834        N835   1.318       .  A
N834       Mn852   2.184       .  S
N835        C842   1.350       .  A
N836        N837   1.319       .  A
N836       Mn840   2.189       .  S
N837        C842   1.351       .  A
N838        N839   1.318       .  A
N838       Mn852   2.189       .  S
N839        C841   1.349       .  A
Mn840      Cl853   2.534       .  S
C841       C1372   1.491       .  S
C842        C909   1.456       .  S
N843        N844   1.319       .  A
N843        N849   1.312   1_655  A
N843       Mn851   2.185       .  S
N844        C854   1.350   1_655  A
N845        N846   1.314       .  A
N845        N847   1.317   1_455  A
N845       Mn852   2.193       .  S
N846        C855   1.350       .  A
N847        N848   1.324       .  A
N847       Mn851   2.209       .  S
N848        C855   1.356   1_655  A
N849        N850   1.320       .  A
N849       Mn852   2.191       .  S
N850        C854   1.351       .  A
Mn851      Cl853   2.536   1_655  S
Mn852      Cl853   2.527       .  S
C854        C999   1.459       .  S
C855       C1381   1.485       .  S
N856        N857   1.317       .  A
N856        N862   1.313   1_545  A
N856       Mn885   2.174       .  S
N857        C864   1.347   1_545  A
N858        N860   1.319   1_565  A
N858        N859   1.323       .  A
N858       Mn874   2.212       .  S
N859        C865   1.356       .  A
N860        N861   1.317       .  A
N860       Mn885   2.202       .  S
N861        C865   1.350   1_545  A
N862        N863   1.319       .  A
N862       Mn874   2.193       .  S
N863        C864   1.352       .  A
C864       C1011   1.453       .  S
C865       C1333   1.492       .  S
N866        N872   1.320       .  A
N866        N867   1.321       .  A
N866       Mn896   2.210       .  S
N867        C875   1.353       .  A
N868        N869   1.319       .  A
N868        N870   1.314       .  A
N868       Mn874   2.192       .  S
N869        C876   1.351       .  A
N870        N871   1.318       .  A
N870       Mn896   2.179       .  S
N871        C876   1.348       .  A
N872        N873   1.321       .  A
N872       Mn874   2.212       .  S
N873        C875   1.354       .  A
Mn874      Cl898   2.532       .  S
C875       C1357   1.494       .  S
N877        N878   1.321       .  A
N877        N883   1.318       .  A
N877       Mn885   2.200       .  S
N878        C886   1.353       .  A
N879        N881   1.312       .  A
N879        N880   1.318       .  A
N879       Mn897   2.182       .  S
N880        C887   1.350       .  A
N881        N882   1.319       .  A
N881       Mn885   2.186       .  S
N882        C887   1.350       .  A
N883        N884   1.317       .  A
N883       Mn897   2.192       .  S
N884        C886   1.348       .  A
Mn885      Cl898   2.537   1_545  S
C886       C1321   1.489       .  S
C887        C954   1.455       .  S
N888        N889   1.319       .  A
N888        N894   1.312   1_565  A
N888       Mn896   2.185       .  S
N889        C899   1.351       .  A
N890        N891   1.317       .  A
N890        N892   1.320   1_545  A
N890       Mn897   2.198       .  S
N891        C900   1.348   1_545  A
N892        N893   1.323       .  A
N892       Mn896   2.208       .  S
N893        C900   1.353       .  A
N894        N895   1.318       .  A
N894       Mn897   2.185       .  S
N895        C899   1.350   1_545  A
Mn896      Cl898   2.542       .  S
Mn897      Cl898   2.523   1_545  S
C899       C1067   1.456       .  S
C900       C1348   1.479       .  S
N901        N902   1.319       .  A
N901        N907   1.314       .  A
N901       Mn930   2.192       .  S
N902        C909   1.351       .  A
N903        N905   1.318       .  A
N903        N904   1.325       .  A
N903       Mn919   2.211       .  S
N904        C910   1.355       .  A
N905        N906   1.316       .  A
N905       Mn930   2.202       .  S
N906        C910   1.351       .  A
N907        N908   1.318       .  A
N907       Mn919   2.184       .  S
N908        C909   1.350       .  A
C910       C1297   1.491       .  S
N911        N917   1.320   1_545  A
N911        N912   1.320       .  A
N911       Mn941   2.212       .  S
N912        C920   1.353   1_545  A
N913        N914   1.319       .  A
N913        N915   1.313   1_565  A
N913       Mn919   2.188       .  S
N914        C921   1.350       .  A
N915        N916   1.319       .  A
N915       Mn941   2.188       .  S
N916        C921   1.350   1_545  A
N917        N918   1.322       .  A
N917       Mn919   2.210       .  S
N918        C920   1.353       .  A
Mn919      Cl943   2.554       .  S
C920       C1309   1.488       .  S
C921       C1022   1.457       .  S
N922        N923   1.317       .  A
N922        N928   1.319   1_565  A
N922       Mn930   2.198       .  S
N923        C931   1.350       .  A
N924        N926   1.313   1_545  A
N924        N925   1.320       .  A
N924       Mn942   2.190       .  S
N925        C932   1.351   1_545  A
N926        N927   1.320       .  A
N926       Mn930   2.198       .  S
N927        C932   1.352       .  A
N928        N929   1.324       .  A
N928       Mn942   2.216       .  S
N929        C931   1.355   1_545  A
Mn930      Cl943   2.518       .  S
C931       C1273   1.486       .  S
C932       C1056   1.462       .  S
N933        N934   1.319       .  A
N933        N939   1.314       .  A
N933       Mn941   2.192       .  S
N934        C944   1.351       .  A
N935        N936   1.321       .  A
N935        N937   1.320       .  A
N935       Mn942   2.212       .  S
N936        C945   1.355       .  A
N937        N938   1.320       .  A
N937       Mn941   2.202       .  S
N938        C945   1.350       .  A
N939        N940   1.319       .  A
N939       Mn942   2.191       .  S
N940        C944   1.350       .  A
Mn941      Cl943   2.527   1_545  S
Mn942      Cl943   2.551   1_545  S
C944        C989   1.458       .  S
C945       C1285   1.495       .  S
N946        N947   1.319       .  A
N946        N952   1.313       .  A
N946       Mn975   2.186       .  S
N947        C954   1.350       .  A
N948        N950   1.320       .  A
N948        N949   1.321       .  A
N948       Mn964   2.211       .  S
N949        C955   1.353       .  A
N950        N951   1.321       .  A
N950       Mn975   2.212       .  S
N951        C955   1.354       .  A
N952        N953   1.319       .  A
N952       Mn964   2.187       .  S
N953        C954   1.350       .  A
C955       C1237   1.495       .  S
N956        N962   1.320   1_455  A
N956        N957   1.320       .  A
N956       Mn986   2.208       .  S
N957        C965   1.351       .  A
N958        N959   1.319       .  A
N958        N960   1.313   1_655  A
N958       Mn964   2.190       .  S
N959        C966   1.350   1_655  A
N960        N961   1.319       .  A
N960       Mn986   2.186       .  S
N961        C966   1.350       .  A
N962        N963   1.322       .  A
N962       Mn964   2.216       .  S
N963        C965   1.355   1_655  A
Mn964      Cl988   2.539   1_655  S
C965       C1225   1.496       .  S
C966       C1079   1.456       .  S
N967        N968   1.321       .  A
N967        N973   1.319   1_655  A
N967       Mn975   2.207       .  S
N968        C976   1.353   1_655  A
N969        N971   1.313   1_455  A
N969        N970   1.320       .  A
N969       Mn987   2.189       .  S
N970        C977   1.351       .  A
N971        N972   1.319       .  A
N971       Mn975   2.191       .  S
N972        C977   1.351   1_655  A
N973        N974   1.321       .  A
N973       Mn987   2.207       .  S
N974        C976   1.353       .  A
Mn975      Cl988   2.539   1_655  S
C976       C1261   1.492       .  S
C977       C1034   1.459       .  S
N978        N979   1.320       .  A
N978        N984   1.313       .  A
N978       Mn986   2.191       .  S
N979        C989   1.351       .  A
N980        N981   1.318       .  A
N980        N982   1.319       .  A
N980       Mn987   2.203       .  S
N981        C990   1.351       .  A
N982        N983   1.321       .  A
N982       Mn986   2.208       .  S
N983        C990   1.355       .  A
N984        N985   1.319       .  A
N984       Mn987   2.186       .  S
N985        C989   1.350       .  A
Mn986      Cl988   2.540       .  S
Mn987      Cl988   2.537       .  S
C990       C1249   1.492       .  S
N991        N992   1.319       .  A
N991        N997   1.312   1_455  A
N991      Mn1020   2.186       .  S
N992        C999   1.351       .  A
N993        N995   1.319   1_655  A
N993        N994   1.319       .  A
N993      Mn1009   2.198       .  S
N994       C1000   1.349   1_655  A
N995        N996   1.322       .  A
N995      Mn1020   2.212       .  S
N996       C1000   1.354       .  A
N997        N998   1.319       .  A
N997      Mn1009   2.191       .  S
N998        C999   1.351   1_655  A
C1000      C1189   1.488       .  S
N1001      N1007   1.319   1_545  A
N1001      N1002   1.323       .  A
N1001     Mn1031   2.215       .  S
N1002      C1010   1.356   1_545  A
N1003      N1004   1.317       .  A
N1003      N1005   1.313   1_565  A
N1003     Mn1009   2.174       .  S
N1004      C1011   1.348       .  A
N1005      N1006   1.319       .  A
N1005     Mn1031   2.193       .  S
N1006      C1011   1.352   1_545  A
N1007      N1008   1.318       .  A
N1007     Mn1009   2.199       .  S
N1008      C1010   1.350       .  A
Mn1009    Cl1033   2.533   1_655  S
C1010      C1204   1.494       .  S
N1012      N1013   1.317       .  A
N1012      N1018   1.321   1_565  A
N1012     Mn1020   2.202       .  S
N1013      C1021   1.350       .  A
N1014      N1016   1.314   1_545  A
N1014      N1015   1.319       .  A
N1014     Mn1032   2.185       .  S
N1015      C1022   1.350   1_545  A
N1016      N1017   1.319       .  A
N1016     Mn1020   2.193       .  S
N1017      C1022   1.351       .  A
N1018      N1019   1.326       .  A
N1018     Mn1032   2.223       .  S
N1019      C1021   1.356   1_545  A
Mn1020    Cl1033   2.533       .  S
C1021      C1177   1.488       .  S
N1023      N1024   1.319       .  A
N1023      N1029   1.314   1_655  A
N1023     Mn1031   2.190       .  S
N1024      C1034   1.350   1_655  A
N1025      N1026   1.321       .  A
N1025      N1027   1.321   1_455  A
N1025     Mn1032   2.214       .  S
N1026      C1035   1.353       .  A
N1027      N1028   1.322       .  A
N1027     Mn1031   2.214       .  S
N1028      C1035   1.354   1_655  A
N1029      N1030   1.320       .  A
N1029     Mn1032   2.195       .  S
N1030      C1034   1.351       .  A
Mn1031    Cl1033   2.540   1_645  S
Mn1032    Cl1033   2.545   1_545  S
C1035      C1213   1.495       .  S
N1036      N1037   1.319       .  A
N1036      N1042   1.314   1_655  A
N1036     Mn1065   2.192       .  S
N1037      C1044   1.350   1_655  A
N1038      N1040   1.320   1_455  A
N1038      N1039   1.324       .  A
N1038     Mn1054   2.217       .  S
N1039      C1045   1.355       .  A
N1040      N1041   1.316       .  A
N1040     Mn1065   2.194       .  S
N1041      C1045   1.346   1_655  A
N1042      N1043   1.320       .  A
N1042     Mn1054   2.191       .  S
N1043      C1044   1.352       .  A
C1045      C1165   1.487       .  S
N1046      N1052   1.321   1_545  A
N1046      N1047   1.318       .  A
N1046     Mn1076   2.210       .  S
N1047      C1055   1.352   1_545  A
N1048      N1049   1.320       .  A
N1048      N1050   1.314   1_565  A
N1048     Mn1054   2.190       .  S
N1049      C1056   1.350       .  A
N1050      N1051   1.321       .  A
N1050     Mn1076   2.201       .  S
N1051      C1056   1.352   1_545  A
N1052      N1053   1.324       .  A
N1052     Mn1054   2.218       .  S
N1053      C1055   1.354       .  A
Mn1054    Cl1078   2.554       .  S
C1055      C1153   1.488   1_565  S
N1057      N1058   1.318       .  A
N1057      N1063   1.317   1_565  A
N1057     Mn1065   2.198       .  S
N1058      C1066   1.349       .  A
N1059      N1061   1.313   1_545  A
N1059      N1060   1.318       .  A
N1059     Mn1077   2.184       .  S
N1060      C1067   1.350   1_545  A
N1061      N1062   1.319       .  A
N1061     Mn1065   2.189       .  S
N1062      C1067   1.351       .  A
N1063      N1064   1.324       .  A
N1063     Mn1077   2.214       .  S
N1064      C1066   1.356   1_545  A
Mn1065    Cl1078   2.520   1_655  S
C1066      C1129   1.494       .  S
N1068      N1069   1.319       .  A
N1068      N1074   1.314   1_455  A
N1068     Mn1076   2.186       .  S
N1069      C1079   1.350       .  A
N1070      N1071   1.318       .  A
N1070      N1072   1.320   1_655  A
N1070     Mn1077   2.202       .  S
N1071      C1080   1.352   1_655  A
N1072      N1073   1.324       .  A
N1072     Mn1076   2.218       .  S
N1073      C1080   1.355       .  A
N1074      N1075   1.319       .  A
N1074     Mn1077   2.192       .  S
N1075      C1079   1.350   1_655  A
Mn1076    Cl1078   2.533   1_545  S
Mn1077    Cl1078   2.543   1_645  S
C1080      C1144   1.495       .  S
C1081      C1082   1.371       .  D
C1081      C1216   1.501       .  S
C1081      C1264   1.499       .  S
C1082      C1789   1.502   1_455  S
C1082      C1840   1.504       .  S
C1083      C1084   1.370       .  D
C1083      C1456   1.502       .  S
C1083      C1552   1.504       .  S
C1084      C1201   1.502       .  S
C1084      C1336   1.497       .  S
C1085      C1086   1.370       .  D
C1085      C1744   1.498       .  S
C1085      C1825   1.507       .  S
C1086      C1192   1.506       .  S
C1086      C1384   1.494       .  S
C1087      C1088   1.368       .  D
C1087      C1504   1.501       .  S
C1087      C1540   1.503       .  S
C1088      C1180   1.501       .  S
C1088      C1312   1.500       .  S
C1089      C1090   1.378       .  D
C1089      C1252   1.513       .  S
C1089      C1288   1.506       .  S
C1090      C2029   1.506       .  S
C1090      C2260   1.512       .  S
C1091      C1092   1.382       .  D
C1091      C2116   1.509       .  S
C1091      C2269   1.550       .  S
C1092      C1240   1.510       .  S
C1092      C1324   1.481       .  S
C1093      C1094   1.375       .  D
C1093      C2020   1.498       .  S
C1093      C2164   1.504       .  S
C1094      C1300   1.506       .  S
C1094      C1369   1.504       .  S
C1095      C1096   1.369       .  D
C1095      C1492   1.507       .  S
C1095      C1624   1.497       .  S
C1096      C1156   1.500   1_565  S
C1096      C1276   1.503       .  S
C1097      C1098   1.372       .  D
C1097      C1780   1.504       .  S
C1097      C1888   1.505       .  S
C1098      C1480   1.501       .  S
C1098      C1573   1.504       .  S
C1099      C1100   1.373   1_556  D
C1099      C1720   1.501       .  S
C1099      C1876   1.503       .  S
C1100      C1468   1.504   1_554  S
C1100      C1660   1.506       .  S
C1101      C1102   1.369       .  D
C1101      C2176   1.505       .  S
C1101      C2224   1.500       .  S
C1102      C1528   1.498       .  S
C1102      C1684   1.506       .  S
C1103      C1104   1.371       .  D
C1103      C1516   1.505       .  S
C1103      C1600   1.505       .  S
C1104      C2212   1.502       .  S
C1104      C2248   1.501       .  S
C1105      C1106   1.370       .  D
C1105      C2080   1.503       .  S
C1105      C2233   1.502       .  S
C1106      C1588   1.501       .  S
C1106      C1636   1.503       .  S
C1107      C1108   1.371       .  D
C1107      C1768   1.504   1_655  S
C1107      C1912   1.504       .  S
C1108      C1141   1.500       .  S
C1108      C1228   1.503       .  S
C1109      C1110   1.377       .  D
C1109      C1753   1.504       .  S
C1109      C1948   1.503       .  S
C1110      C1420   1.508       .  S
C1110      C1564   1.505       .  S
C1111      C1112   1.371       .  D
C1111      C2008   1.499       .  S
C1111      C2200   1.508       .  S
C1112      C1813   1.496       .  S
C1112      C1864   1.498       .  S
C1113      C1114   1.368       .  D
C1113      C1804   1.500       .  S
C1113      C1969   1.502       .  S
C1114      C2128   1.506       .  S
C1114      C2188   1.501       .  S
C1115      C1116   1.371       .  D
C1115      C1996   1.498       .  S
C1115      C2065   1.499       .  S
C1116      C1852   1.502       .  S
C1116      C1897   1.501       .  S
C1117      C1118   1.371       .  D
C1117      C1732   1.499       .  S
C1117      C1921   1.498       .  S
C1118      C1168   1.502       .  S
C1118      C1396   1.502       .  S
C1119      C1120   1.368       .  D
C1119      C1444   1.491       .  S
C1119      C1612   1.499       .  S
C1120      C1132   1.500       .  S
C1120      C1345   1.501       .  S
C1121      C1122   1.366       .  D
C1121      C1705   1.498       .  S
C1121      C1960   1.503       .  S
C1122      C1432   1.501       .  S
C1122      C1672   1.497       .  S
C1123      C1124   1.368       .  D
C1123      C2053   1.504       .  S
C1123      C2104   1.503       .  S
C1124      C1936   1.497       .  S
C1124      C1984   1.497       .  S
C1125      C1126   1.372       .  D
C1125      C2092   1.505       .  S
C1125      C2140   1.507       .  S
C1126      C1360   1.498       .  S
C1126      C1408   1.496       .  S
C1127      C1128   1.391       .  D
C1127      C1648   1.546       .  S
C1127      C1696   1.504       .  S
C1128      C2044   1.510       .  S
C1128      C2152   1.505       .  S
C1129      C1130   1.406   1_565  A
C1129      C1134   1.420       .  A
C1130      C1131   1.404       .  A
C1130      H1139   1.084       .  S
C1131      C1132   1.419   1_545  A
C1131      S1135   1.804       .  S
C1132      C1133   1.400       .  A
C1133      C1134   1.397       .  A
C1133      H1140   1.084       .  S
C1134      S1136   1.800       .  S
S1135      H1138   1.396       .  S
S1136      H1137   1.408       .  S
C1141      C1142   1.407   1_655  A
C1141      C1146   1.412       .  A
C1142      C1143   1.406       .  A
C1142      H1151   1.082       .  S
C1143      C1144   1.417       .  A
C1143      S1147   1.801       .  S
C1144      C1145   1.406   1_455  A
C1145      C1146   1.396       .  A
C1145      H1152   1.083       .  S
C1146      S1148   1.798       .  S
S1147      H1150   1.407       .  S
S1148      H1149   1.397       .  S
C1153      C1154   1.403       .  A
C1153      C1158   1.415   1_545  A
C1154      C1155   1.393       .  A
C1154      H1163   1.083       .  S
C1155      C1156   1.416       .  A
C1155      S1159   1.804       .  S
C1156      C1157   1.409   1_545  A
C1157      C1158   1.408       .  A
C1157      H1164   1.083       .  S
C1158      S1160   1.801       .  S
S1159      H1162   1.400       .  S
S1160      H1161   1.407       .  S
C1165      C1166   1.403       .  A
C1165      C1170   1.418   1_455  A
C1166      C1167   1.406       .  A
C1166      H1175   1.084       .  S
C1167      C1168   1.423       .  A
C1167      S1171   1.800       .  S
C1168      C1169   1.402   1_455  A
C1169      C1170   1.392       .  A
C1169      H1176   1.081       .  S
C1170      S1172   1.804       .  S
S1171      H1174   1.395       .  S
S1172      H1173   1.409       .  S
C1177      C1178   1.404       .  A
C1177      C1182   1.413   1_565  A
C1178      C1179   1.393       .  A
C1178      H1187   1.084       .  S
C1179      C1180   1.417       .  A
C1179      S1183   1.806       .  S
C1180      C1181   1.411   1_565  A
C1181      C1182   1.408       .  A
C1181      H1188   1.082       .  S
C1182      S1184   1.801       .  S
S1183      H1186   1.396       .  S
S1184      H1185   1.406       .  S
C1189      C1190   1.403       .  A
C1189      C1194   1.417   1_455  A
C1190      C1191   1.405       .  A
C1190      H1199   1.084       .  S
C1191      C1192   1.423       .  A
C1191      S1195   1.801       .  S
C1192      C1193   1.404   1_455  A
C1193      C1194   1.395       .  A
C1193      H1200   1.084       .  S
C1194      S1196   1.802       .  S
S1195      H1198   1.386       .  S
S1196      H1197   1.408       .  S
C1201      C1202   1.402       .  A
C1201      C1206   1.415   1_565  A
C1202      C1203   1.399       .  A
C1202      H1211   1.078       .  S
C1203      C1204   1.418       .  A
C1203      S1207   1.803       .  S
C1204      C1205   1.406   1_565  A
C1205      C1206   1.402       .  A
C1205      H1212   1.083       .  S
C1206      S1208   1.792       .  S
S1207      H1210   1.408       .  S
S1208      H1209   1.401       .  S
C1213      C1214   1.408   1_455  A
C1213      C1218   1.416       .  A
C1214      C1215   1.403       .  A
C1214      H1223   1.083       .  S
C1215      C1216   1.415   1_655  A
C1215      S1219   1.801       .  S
C1216      C1217   1.405       .  A
C1217      C1218   1.401       .  A
C1217      H1224   1.080       .  S
C1218      S1220   1.802       .  S
S1219      H1222   1.398       .  S
S1220      H1221   1.408       .  S
C1225      C1226   1.405   1_455  A
C1225      C1230   1.419       .  A
C1226      C1227   1.403       .  A
C1226      H1235   1.084       .  S
C1227      C1228   1.420       .  A
C1227      S1231   1.798       .  S
C1228      C1229   1.405   1_655  A
C1229      C1230   1.400       .  A
C1229      H1236   1.083       .  S
C1230      S1232   1.801       .  S
S1231      H1234   1.387       .  S
S1232      H1233   1.408       .  S
C1237      C1238   1.406       .  A
C1237      C1242   1.415       .  A
C1238      C1239   1.403       .  A
C1238      H1247   1.084       .  S
C1239      C1240   1.418       .  A
C1239      S1243   1.796       .  S
C1240      C1241   1.405       .  A
C1241      C1242   1.400       .  A
C1241      H1248   1.079       .  S
C1242      S1244   1.801       .  S
S1243      H1246   1.391       .  S
S1244      H1245   1.408       .  S
C1249      C1250   1.403       .  A
C1249      C1254   1.413       .  A
C1250      C1251   1.402       .  A
C1250      H1259   1.084       .  S
C1251      C1252   1.423       .  A
C1251      S1255   1.793       .  S
C1252      C1253   1.407       .  A
C1253      C1254   1.397       .  A
C1253      H1260   1.075       .  S
C1254      S1256   1.803       .  S
S1255      H1258   1.391       .  S
S1256      H1257   1.408       .  S
C1261      C1262   1.407       .  A
C1261      C1266   1.415   1_455  A
C1262      C1263   1.401       .  A
C1262      H1271   1.083       .  S
C1263      C1264   1.415       .  A
C1263      S1267   1.801       .  S
C1264      C1265   1.405   1_455  A
C1265      C1266   1.400       .  A
C1265      H1272   1.080       .  S
C1266      S1268   1.802       .  S
S1267      H1270   1.396       .  S
S1268      H1269   1.408       .  S
C1273      C1274   1.405       .  A
C1273      C1278   1.412   1_565  A
C1274      C1275   1.399       .  A
C1274      H1283   1.082       .  S
C1275      C1276   1.413       .  A
C1275      S1279   1.808       .  S
C1276      C1277   1.409   1_565  A
C1277      C1278   1.404       .  A
C1277      H1284   1.081       .  S
C1278      S1280   1.801       .  S
S1279      H1282   1.406       .  S
S1280      H1281   1.407       .  S
C1285      C1286   1.403       .  A
C1285      C1290   1.418       .  A
C1286      C1287   1.401       .  A
C1286      H1295   1.084       .  S
C1287      C1288   1.422       .  A
C1287      S1291   1.800       .  S
C1288      C1289   1.405       .  A
C1289      C1290   1.401       .  A
C1289      H1296   1.080       .  S
C1290      S1292   1.801       .  S
S1291      H1294   1.381       .  S
S1292      H1293   1.407       .  S
C1297      C1298   1.403       .  A
C1297      C1302   1.413       .  A
C1298      C1299   1.396       .  A
C1298      H1307   1.082       .  S
C1299      C1300   1.416       .  A
C1299      S1303   1.800       .  S
C1300      C1301   1.410       .  A
C1301      C1302   1.407       .  A
C1301      H1308   1.080       .  S
C1302      S1304   1.801       .  S
S1303      H1306   1.407       .  S
S1304      H1305   1.407       .  S
C1309      C1310   1.405   1_565  A
C1309      C1314   1.415       .  A
C1310      C1311   1.396       .  A
C1310      H1319   1.083       .  S
C1311      C1312   1.413   1_545  A
C1311      S1315   1.802       .  S
C1312      C1313   1.406       .  A
C1313      C1314   1.405       .  A
C1313      H1320   1.083       .  S
C1314      S1316   1.802       .  S
S1315      H1318   1.405       .  S
S1316      H1317   1.407       .  S
C1321      C1322   1.407       .  A
C1321      C1326   1.421       .  A
C1322      C1323   1.400       .  A
C1322      H1331   1.084       .  S
C1323      C1324   1.416       .  A
C1323      S1327   1.800       .  S
C1324      C1325   1.403       .  A
C1325      C1326   1.398       .  A
C1325      H1332   1.083       .  S
C1326      S1328   1.801       .  S
S1327      H1330   1.404       .  S
S1328      H1329   1.408       .  S
C1333      C1334   1.407       .  A
C1333      C1338   1.416   1_565  A
C1334      C1335   1.406       .  A
C1334      H1343   1.083       .  S
C1335      C1336   1.413       .  A
C1335      S1339   1.800       .  S
C1336      C1337   1.400   1_565  A
C1337      C1338   1.396       .  A
C1337      H1344   1.078       .  S
C1338      S1340   1.802       .  S
S1339      H1342   1.407       .  S
S1340      H1341   1.408       .  S
C1345      C1346   1.403   1_565  A
C1345      C1350   1.420       .  A
C1346      C1347   1.390       .  A
C1346      H1355   1.082       .  S
C1347      C1348   1.415   1_545  A
C1347      S1351   1.805       .  S
C1348      C1349   1.401       .  A
C1349      C1350   1.409       .  A
C1349      H1356   1.083       .  S
C1350      S1352   1.800       .  S
S1351      H1354   1.408       .  S
S1352      H1353   1.407       .  S
C1357      C1358   1.407       .  A
C1357      C1362   1.417       .  A
C1358      C1359   1.403       .  A
C1358      H1367   1.083       .  S
C1359      C1360   1.411       .  A
C1359      S1363   1.798       .  S
C1360      C1361   1.403       .  A
C1361      C1362   1.401       .  A
C1361      H1368   1.081       .  S
C1362      S1364   1.801       .  S
S1363      H1366   1.408       .  S
S1364      H1365   1.408       .  S
C1369      C1370   1.404       .  A
C1369      C1374   1.425       .  A
C1370      C1371   1.398       .  A
C1370      H1379   1.082       .  S
C1371      C1372   1.417       .  A
C1371      S1375   1.802       .  S
C1372      C1373   1.401       .  A
C1373      C1374   1.401       .  A
C1373      H1380   1.084       .  S
C1374      S1376   1.803       .  S
S1375      H1378   1.408       .  S
S1376      H1377   1.392       .  S
C1381      C1382   1.404       .  A
C1381      C1386   1.415   1_455  A
C1382      C1383   1.388       .  A
C1382      H1391   1.083       .  S
C1383      C1384   1.411       .  A
C1383      S1387   1.799       .  S
C1384      C1385   1.409   1_455  A
C1385      C1386   1.407       .  A
C1385      H1392   1.083       .  S
C1386      S1388   1.801       .  S
S1387      H1390   1.401       .  S
S1388      H1389   1.407       .  S
C1393      C1394   1.403   1_455  A
C1393      C1398   1.419       .  A
C1394      C1395   1.404       .  A
C1394      H1403   1.084       .  S
C1395      C1396   1.422   1_655  A
C1395      S1399   1.802       .  S
C1396      C1397   1.402       .  A
C1397      C1398   1.395       .  A
C1397      H1404   1.082       .  S
C1398      S1400   1.802       .  S
S1399      H1402   1.393       .  S
S1400      H1401   1.409       .  S
C1405      C1406   1.410       .  A
C1405      C1410   1.419       .  A
C1406      C1407   1.410       .  A
C1406      H1415   1.083       .  S
C1407      C1408   1.418       .  A
C1407      S1411   1.804       .  S
C1408      C1409   1.398       .  A
C1409      C1410   1.394       .  A
C1409      H1416   1.080       .  S
C1410      S1412   1.803       .  S
S1411      H1414   1.399       .  S
S1412      H1413   1.408       .  S
C1417      C1418   1.404       .  A
C1417      C1422   1.415   1_554  A
C1418      C1419   1.399       .  A
C1418      H1427   1.081       .  S
C1419      C1420   1.416       .  A
C1419      S1423   1.801       .  S
C1420      C1421   1.409   1_554  A
C1421      C1422   1.406       .  A
C1421      H1428   1.081       .  S
C1422      S1424   1.801       .  S
S1423      H1426   1.407       .  S
S1424      H1425   1.407       .  S
C1429      C1430   1.406   1_554  A
C1429      C1434   1.421       .  A
C1430      C1431   1.409       .  A
C1430      H1439   1.082       .  S
C1431      C1432   1.415       .  A
C1431      S1435   1.801       .  S
C1432      C1433   1.401   1_556  A
C1433      C1434   1.399       .  A
C1433      H1440   1.083       .  S
C1434      S1436   1.801       .  S
S1435      H1438   1.406       .  S
S1436      H1437   1.408       .  S
C1441      C1442   1.405   1_545  A
C1441      C1446   1.420       .  A
C1442      C1443   1.402       .  A
C1442      H1451   1.084       .  S
C1443      C1444   1.418       .  A
C1443      S1447   1.806       .  S
C1444      C1445   1.399   1_565  A
C1445      C1446   1.395       .  A
C1445      H1452   1.083       .  S
C1446      S1448   1.801       .  S
S1447      H1450   1.394       .  S
S1448      H1449   1.408       .  S
C1453      C1454   1.402       .  A
C1453      C1458   1.417   1_565  A
C1454      C1455   1.404       .  A
C1454      H1463   1.084       .  S
C1455      C1456   1.423       .  A
C1455      S1459   1.800       .  S
C1456      C1457   1.403   1_565  A
C1457      C1458   1.393       .  A
C1457      H1464   1.077       .  S
C1458      S1460   1.803       .  S
S1459      H1462   1.389       .  S
S1460      H1461   1.409       .  S
C1465      C1466   1.405   1_556  A
C1465      C1470   1.418       .  A
C1466      C1467   1.408       .  A
C1466      H1475   1.084       .  S
C1467      C1468   1.422   1_554  A
C1467      S1471   1.803       .  S
C1468      C1469   1.403       .  A
C1469      C1470   1.394       .  A
C1469      H1476   1.084       .  S
C1470      S1472   1.802       .  S
S1471      H1474   1.395       .  S
S1472      H1473   1.408       .  S
C1477      C1478   1.404       .  A
C1477      C1482   1.418   1_556  A
C1478      C1479   1.397       .  A
C1478      H1487   1.083       .  S
C1479      C1480   1.416       .  A
C1479      S1483   1.799       .  S
C1480      C1481   1.406   1_556  A
C1481      C1482   1.405       .  A
C1481      H1488   1.082       .  S
C1482      S1484   1.801       .  S
S1483      H1486   1.390       .  S
S1484      H1485   1.407       .  S
C1489      C1490   1.405   1_565  A
C1489      C1494   1.416       .  A
C1490      C1491   1.407       .  A
C1490      H1499   1.084       .  S
C1491      C1492   1.420   1_545  A
C1491      S1495   1.796       .  S
C1492      C1493   1.404       .  A
C1493      C1494   1.393       .  A
C1493      H1500   1.077       .  S
C1494      S1496   1.804       .  S
S1495      H1498   1.400       .  S
S1496      H1497   1.409       .  S
C1501      C1502   1.404       .  A
C1501      C1506   1.419   1_565  A
C1502      C1503   1.405       .  A
C1502      H1511   1.084       .  S
C1503      C1504   1.422       .  A
C1503      S1507   1.801       .  S
C1504      C1505   1.402   1_565  A
C1505      C1506   1.395       .  A
C1505      H1512   1.084       .  S
C1506      S1508   1.802       .  S
S1507      H1510   1.387       .  S
S1508      H1509   1.408       .  S
C1513      C1514   1.403       .  A
C1513      C1518   1.412       .  A
C1514      C1515   1.393       .  A
C1514      H1523   1.084       .  S
C1515      C1516   1.418       .  A
C1515      S1519   1.806       .  S
C1516      C1517   1.412       .  A
C1517      C1518   1.409       .  A
C1517      H1524   1.082       .  S
C1518      S1520   1.802       .  S
S1519      H1522   1.396       .  S
S1520      H1521   1.406       .  S
C1525      C1526   1.405       .  A
C1525      C1530   1.417       .  A
C1526      C1527   1.394       .  A
C1526      H1535   1.083       .  S
C1527      C1528   1.409       .  A
C1527      S1531   1.795       .  S
C1528      C1529   1.407       .  A
C1529      C1530   1.406       .  A
C1529      H1536   1.083       .  S
C1530      S1532   1.801       .  S
S1531      H1534   1.403       .  S
S1532      H1533   1.407       .  S
C1537      C1538   1.407       .  A
C1537      C1542   1.415   1_565  A
C1538      C1539   1.400       .  A
C1538      H1547   1.081       .  S
C1539      C1540   1.411       .  A
C1539      S1543   1.804       .  S
C1540      C1541   1.408   1_565  A
C1541      C1542   1.406       .  A
C1541      H1548   1.082       .  S
C1542      S1544   1.801       .  S
S1543      H1546   1.406       .  S
S1544      H1545   1.407       .  S
C1549      C1550   1.403   1_565  A
C1549      C1554   1.419       .  A
C1550      C1551   1.402       .  A
C1550      H1559   1.084       .  S
C1551      C1552   1.423   1_545  A
C1551      S1555   1.803       .  S
C1552      C1553   1.403       .  A
C1553      C1554   1.399       .  A
C1553      H1560   1.080       .  S
C1554      S1556   1.802       .  S
S1555      H1558   1.387       .  S
S1556      H1557   1.408       .  S
C1561      C1562   1.403   1_556  A
C1561      C1566   1.419       .  A
C1562      C1563   1.404       .  A
C1562      H1571   1.084       .  S
C1563      C1564   1.424       .  A
C1563      S1567   1.802       .  S
C1564      C1565   1.404   1_554  A
C1565      C1566   1.398       .  A
C1565      H1572   1.083       .  S
C1566      S1568   1.802       .  S
S1567      H1570   1.391       .  S
S1568      H1569   1.408       .  S
C1573      C1574   1.405   1_556  A
C1573      C1578   1.416       .  A
C1574      C1575   1.401       .  A
C1574      H1583   1.083       .  S
C1575      C1576   1.418   1_554  A
C1575      S1579   1.801       .  S
C1576      C1577   1.406       .  A
C1577      C1578   1.402       .  A
C1577      H1584   1.084       .  S
C1578      S1580   1.795       .  S
S1579      H1582   1.408       .  S
S1580      H1581   1.395       .  S
C1585      C1586   1.407       .  A
C1585      C1590   1.420       .  A
C1586      C1587   1.404       .  A
C1586      H1595   1.084       .  S
C1587      C1588   1.413       .  A
C1587      S1591   1.792       .  S
C1588      C1589   1.403       .  A
C1589      C1590   1.401       .  A
C1589      H1596   1.083       .  S
C1590      S1592   1.801       .  S
S1591      H1594   1.405       .  S
S1592      H1593   1.408       .  S
C1597      C1598   1.405       .  A
C1597      C1602   1.412       .  A
C1598      C1599   1.397       .  A
C1598      H1607   1.084       .  S
C1599      C1600   1.414       .  A
C1599      S1603   1.802       .  S
C1600      C1601   1.409       .  A
C1601      C1602   1.404       .  A
C1601      H1608   1.081       .  S
C1602      S1604   1.801       .  S
S1603      H1606   1.407       .  S
S1604      H1605   1.407       .  S
C1609      C1610   1.409   1_565  A
C1609      C1614   1.421       .  A
C1610      C1611   1.408       .  A
C1610      H1619   1.084       .  S
C1611      C1612   1.415   1_545  A
C1611      S1615   1.794       .  S
C1612      C1613   1.400       .  A
C1613      C1614   1.393       .  A
C1613      H1620   1.081       .  S
C1614      S1616   1.802       .  S
S1615      H1618   1.403       .  S
S1616      H1617   1.408       .  S
C1621      C1622   1.407       .  A
C1621      C1626   1.418   1_565  A
C1622      C1623   1.404       .  A
C1622      H1631   1.083       .  S
C1623      C1624   1.418       .  A
C1623      S1627   1.806       .  S
C1624      C1625   1.401   1_565  A
C1625      C1626   1.397       .  A
C1625      H1632   1.081       .  S
C1626      S1628   1.802       .  S
S1627      H1630   1.399       .  S
S1628      H1629   1.408       .  S
C1633      C1634   1.405       .  A
C1633      C1638   1.416       .  A
C1634      C1635   1.396       .  A
C1634      H1643   1.083       .  S
C1635      C1636   1.415       .  A
C1635      S1639   1.797       .  S
C1636      C1637   1.408       .  A
C1637      C1638   1.406       .  A
C1637      H1644   1.080       .  S
C1638      S1640   1.800       .  S
S1639      H1642   1.389       .  S
S1640      H1641   1.407       .  S
C1645      C1646   1.389       .  A
C1645      C1650   1.401       .  A
C1646      C1647   1.393       .  A
C1646      H1655   1.086       .  S
C1647      C1648   1.441       .  A
C1647      S1651   1.801       .  S
C1648      C1649   1.423       .  A
C1649      C1650   1.407       .  A
C1649      H1656   1.072       .  S
C1650      S1652   1.803       .  S
S1651      H1654   1.410       .  S
S1652      H1653   1.406       .  S
C1657      C1658   1.406       .  A
C1657      C1662   1.415   1_554  A
C1658      C1659   1.396       .  A
C1658      H1667   1.083       .  S
C1659      C1660   1.412       .  A
C1659      S1663   1.794       .  S
C1660      C1661   1.408   1_554  A
C1661      C1662   1.407       .  A
C1661      H1668   1.079       .  S
C1662      S1664   1.801       .  S
S1663      H1666   1.404       .  S
S1664      H1665   1.407       .  S
C1669      C1670   1.407       .  A
C1669      C1674   1.418   1_556  A
C1670      C1671   1.402       .  A
C1670      H1679   1.082       .  S
C1671      C1672   1.410       .  A
C1671      S1675   1.803       .  S
C1672      C1673   1.404   1_556  A
C1673      C1674   1.404       .  A
C1673      H1680   1.082       .  S
C1674      S1676   1.801       .  S
S1675      H1678   1.406       .  S
S1676      H1677   1.407       .  S
C1681      C1682   1.404       .  A
C1681      C1686   1.419       .  A
C1682      C1683   1.406       .  A
C1682      H1691   1.084       .  S
C1683      C1684   1.422       .  A
C1683      S1687   1.801       .  S
C1684      C1685   1.404       .  A
C1685      C1686   1.399       .  A
C1685      H1692   1.084       .  S
C1686      S1688   1.801       .  S
S1687      H1690   1.383       .  S
S1688      H1689   1.408       .  S
C1693      C1694   1.408       .  A
C1693      C1698   1.418       .  A
C1694      C1695   1.413       .  A
C1694      H1703   1.082       .  S
C1695      C1696   1.420       .  A
C1695      S1699   1.806       .  S
C1696      C1697   1.399       .  A
C1697      C1698   1.395       .  A
C1697      H1704   1.081       .  S
C1698      S1700   1.803       .  S
S1699      H1702   1.407       .  S
S1700      H1701   1.408       .  S
C1705      C1706   1.408   1_556  A
C1705      C1710   1.414       .  A
C1706      C1707   1.407       .  A
C1706      H1715   1.082       .  S
C1707      C1708   1.414   1_554  A
C1707      S1711   1.801       .  S
C1708      C1709   1.405       .  A
C1709      C1710   1.394       .  A
C1709      H1716   1.083       .  S
C1710      S1712   1.804       .  S
S1711      H1714   1.407       .  S
S1712      H1713   1.400       .  S
C1717      C1718   1.407   1_554  A
C1717      C1722   1.417       .  A
C1718      C1719   1.408       .  A
C1718      H1727   1.084       .  S
C1719      C1720   1.421       .  A
C1719      S1723   1.804       .  S
C1720      C1721   1.403   1_556  A
C1721      C1722   1.393       .  A
C1721      H1728   1.084       .  S
C1722      S1724   1.801       .  S
S1723      H1726   1.394       .  S
S1724      H1725   1.408       .  S
C1729      C1730   1.407   1_455  A
C1729      C1734   1.418       .  A
C1730      C1731   1.403       .  A
C1730      H1739   1.083       .  S
C1731      C1732   1.415   1_655  A
C1731      S1735   1.794       .  S
C1732      C1733   1.401       .  A
C1733      C1734   1.397       .  A
C1733      H1740   1.078       .  S
C1734      S1736   1.802       .  S
S1735      H1738   1.399       .  S
S1736      H1737   1.408       .  S
C1741      C1742   1.404       .  A
C1741      C1746   1.413   1_455  A
C1742      C1743   1.390       .  A
C1742      H1751   1.083       .  S
C1743      C1744   1.414       .  A
C1743      S1747   1.804       .  S
C1744      C1745   1.410   1_455  A
C1745      C1746   1.406       .  A
C1745      H1752   1.083       .  S
C1746      S1748   1.801       .  S
S1747      H1750   1.394       .  S
S1748      H1749   1.407       .  S
C1753      C1754   1.407   1_554  A
C1753      C1758   1.413       .  A
C1754      C1755   1.405       .  A
C1754      H1763   1.079       .  S
C1755      C1756   1.415       .  A
C1755      S1759   1.801       .  S
C1756      C1757   1.407   1_556  A
C1757      C1758   1.399       .  A
C1757      H1764   1.083       .  S
C1758      S1760   1.795       .  S
S1759      H1762   1.407       .  S
S1760      H1761   1.396       .  S
C1765      C1766   1.406       .  A
C1765      C1770   1.413   1_455  A
C1766      C1767   1.398       .  A
C1766      H1775   1.083       .  S
C1767      C1768   1.413       .  A
C1767      S1771   1.802       .  S
C1768      C1769   1.408   1_455  A
C1769      C1770   1.404       .  A
C1769      H1776   1.080       .  S
C1770      S1772   1.802       .  S
S1771      H1774   1.405       .  S
S1772      H1773   1.407       .  S
C1777      C1778   1.405   1_556  A
C1777      C1782   1.414       .  A
C1778      C1779   1.399       .  A
C1778      H1787   1.083       .  S
C1779      C1780   1.414   1_554  A
C1779      S1783   1.802       .  S
C1780      C1781   1.407       .  A
C1781      C1782   1.404       .  A
C1781      H1788   1.078       .  S
C1782      S1784   1.802       .  S
S1783      H1786   1.404       .  S
S1784      H1785   1.407       .  S
C1789      C1790   1.407   1_655  A
C1789      C1794   1.415       .  A
C1790      C1791   1.402       .  A
C1790      H1799   1.079       .  S
C1791      C1792   1.411   1_455  A
C1791      S1795   1.802       .  S
C1792      C1793   1.406       .  A
C1793      C1794   1.402       .  A
C1793      H1800   1.082       .  S
C1794      S1796   1.807       .  S
S1795      H1798   1.407       .  S
S1796      H1797   1.406       .  S
C1801      C1802   1.403       .  A
C1801      C1806   1.413       .  A
C1802      C1803   1.391       .  A
C1802      H1811   1.084       .  S
C1803      C1804   1.417       .  A
C1803      S1807   1.805       .  S
C1804      C1805   1.410       .  A
C1805      C1806   1.408       .  A
C1805      H1812   1.083       .  S
C1806      S1808   1.801       .  S
S1807      H1810   1.396       .  S
S1808      H1809   1.406       .  S
C1813      C1814   1.399       .  A
C1813      C1818   1.419       .  A
C1814      C1815   1.393       .  A
C1814      H1823   1.080       .  S
C1815      C1816   1.419       .  A
C1815      S1819   1.803       .  S
C1816      C1817   1.408       .  A
C1817      C1818   1.407       .  A
C1817      H1824   1.084       .  S
C1818      S1820   1.806       .  S
S1819      H1822   1.408       .  S
S1820      H1821   1.395       .  S
C1825      C1826   1.404   1_455  A
C1825      C1830   1.421       .  A
C1826      C1827   1.395       .  A
C1826      H1835   1.084       .  S
C1827      C1828   1.417   1_655  A
C1827      S1831   1.802       .  S
C1828      C1829   1.403       .  A
C1829      C1830   1.408       .  A
C1829      H1836   1.083       .  S
C1830      S1832   1.802       .  S
S1831      H1834   1.408       .  S
S1832      H1833   1.406       .  S
C1837      C1838   1.405       .  A
C1837      C1842   1.411   1_455  A
C1838      C1839   1.401       .  A
C1838      H1847   1.082       .  S
C1839      C1840   1.415       .  A
C1839      S1843   1.807       .  S
C1840      C1841   1.408   1_455  A
C1841      C1842   1.403       .  A
C1841      H1848   1.079       .  S
C1842      S1844   1.802       .  S
S1843      H1846   1.406       .  S
S1844      H1845   1.407       .  S
C1849      C1850   1.403       .  A
C1849      C1854   1.418       .  A
C1850      C1851   1.404       .  A
C1850      H1859   1.084       .  S
C1851      C1852   1.422       .  A
C1851      S1855   1.802       .  S
C1852      C1853   1.403       .  A
C1853      C1854   1.395       .  A
C1853      H1860   1.080       .  S
C1854      S1856   1.802       .  S
S1855      H1858   1.392       .  S
S1856      H1857   1.409       .  S
C1861      C1862   1.408       .  A
C1861      C1866   1.419       .  A
C1862      C1863   1.404       .  A
C1862      H1871   1.083       .  S
C1863      C1864   1.415       .  A
C1863      S1867   1.799       .  S
C1864      C1865   1.402       .  A
C1865      C1866   1.398       .  A
C1865      H1872   1.080       .  S
C1866      S1868   1.802       .  S
S1867      H1870   1.396       .  S
S1868      H1869   1.408       .  S
C1873      C1874   1.405       .  A
C1873      C1878   1.417   1_556  A
C1874      C1875   1.396       .  A
C1874      H1883   1.083       .  S
C1875      C1876   1.412       .  A
C1875      S1879   1.796       .  S
C1876      C1877   1.407   1_556  A
C1877      C1878   1.407       .  A
C1877      H1884   1.082       .  S
C1878      S1880   1.801       .  S
S1879      H1882   1.401       .  S
S1880      H1881   1.407       .  S
C1885      C1886   1.403       .  A
C1885      C1890   1.411   1_556  A
C1886      C1887   1.392       .  A
C1886      H1895   1.084       .  S
C1887      C1888   1.417       .  A
C1887      S1891   1.802       .  S
C1888      C1889   1.411   1_556  A
C1889      C1890   1.407       .  A
C1889      H1896   1.080       .  S
C1890      S1892   1.801       .  S
S1891      H1894   1.394       .  S
S1892      H1893   1.406       .  S
C1897      C1898   1.400       .  A
C1897      C1902   1.422       .  A
C1898      C1899   1.395       .  A
C1898      H1907   1.080       .  S
C1899      C1900   1.421       .  A
C1899      S1903   1.802       .  S
C1900      C1901   1.404       .  A
C1901      C1902   1.405       .  A
C1901      H1908   1.084       .  S
C1902      S1904   1.802       .  S
S1903      H1906   1.407       .  S
S1904      H1905   1.391       .  S
C1909      C1910   1.403       .  A
C1909      C1914   1.412   1_655  A
C1910      C1911   1.392       .  A
C1910      H1919   1.084       .  S
C1911      C1912   1.418       .  A
C1911      S1915   1.805       .  S
C1912      C1913   1.411   1_655  A
C1913      C1914   1.408       .  A
C1913      H1920   1.081       .  S
C1914      S1916   1.801       .  S
S1915      H1918   1.396       .  S
S1916      H1917   1.406       .  S
C1921      C1922   1.401   1_455  A
C1921      C1926   1.415       .  A
C1922      C1923   1.397       .  A
C1922      H1931   1.079       .  S
C1923      C1924   1.417   1_655  A
C1923      S1927   1.802       .  S
C1924      C1925   1.407       .  A
C1925      C1926   1.402       .  A
C1925      H1932   1.083       .  S
C1926      S1928   1.795       .  S
S1927      H1930   1.408       .  S
S1928      H1929   1.398       .  S
C1933      C1934   1.407       .  A
C1933      C1938   1.418       .  A
C1934      C1935   1.402       .  A
C1934      H1943   1.083       .  S
C1935      C1936   1.411       .  A
C1935      S1939   1.792       .  S
C1936      C1937   1.402       .  A
C1937      C1938   1.400       .  A
C1937      H1944   1.081       .  S
C1938      S1940   1.802       .  S
S1939      H1942   1.406       .  S
S1940      H1941   1.408       .  S
C1945      C1946   1.408   1_554  A
C1945      C1950   1.415       .  A
C1946      C1947   1.408       .  A
C1946      H1955   1.083       .  S
C1947      C1948   1.419   1_556  A
C1947      S1951   1.802       .  S
C1948      C1949   1.401       .  A
C1949      C1950   1.394       .  A
C1949      H1956   1.074       .  S
C1950      S1952   1.804       .  S
S1951      H1954   1.397       .  S
S1952      H1953   1.408       .  S
C1957      C1958   1.406       .  A
C1957      C1962   1.416   1_554  A
C1958      C1959   1.399       .  A
C1958      H1967   1.083       .  S
C1959      C1960   1.413   1_554  A
C1959      S1963   1.802       .  S
C1960      C1961   1.406       .  A
C1961      C1962   1.405       .  A
C1961      H1968   1.081       .  S
C1962      S1964   1.802       .  S
S1963      H1966   1.404       .  S
S1964      H1965   1.407       .  S
C1969      C1970   1.406       .  A
C1969      C1974   1.411       .  A
C1970      C1971   1.403       .  A
C1970      H1979   1.081       .  S
C1971      C1972   1.414       .  A
C1971      S1975   1.802       .  S
C1972      C1973   1.406       .  A
C1973      C1974   1.401       .  A
C1973      H1980   1.082       .  S
C1974      S1976   1.807       .  S
S1975      H1978   1.407       .  S
S1976      H1977   1.406       .  S
C1981      C1982   1.407       .  A
C1981      C1986   1.418       .  A
C1982      C1983   1.400       .  A
C1982      H1991   1.083       .  S
C1983      C1984   1.410       .  A
C1983      S1987   1.792       .  S
C1984      C1985   1.403       .  A
C1985      C1986   1.402       .  A
C1985      H1992   1.081       .  S
C1986      S1988   1.802       .  S
S1987      H1990   1.407       .  S
S1988      H1989   1.408       .  S
C1993      C1994   1.407       .  A
C1993      C1998   1.419       .  A
C1994      C1995   1.404       .  A
C1994      H2003   1.083       .  S
C1995      C1996   1.414       .  A
C1995      S1999   1.793       .  S
C1996      C1997   1.400       .  A
C1997      C1998   1.397       .  A
C1997      H2004   1.078       .  S
C1998      S2000   1.803       .  S
S1999      H2002   1.403       .  S
S2000      H2001   1.408       .  S
C2005      C2006   1.403       .  A
C2005      C2010   1.418       .  A
C2006      C2007   1.403       .  A
C2006      H2015   1.084       .  S
C2007      C2008   1.422       .  A
C2007      S2011   1.804       .  S
C2008      C2009   1.401       .  A
C2009      C2010   1.394       .  A
C2009      H2016   1.084       .  S
C2010      S2012   1.802       .  S
S2011      H2014   1.397       .  S
S2012      H2013   1.408       .  S
C2017      C2018   1.408       .  A
C2017      C2022   1.412       .  A
C2018      C2019   1.405       .  A
C2018      H2027   1.084       .  S
C2019      C2020   1.418       .  A
C2019      S2023   1.803       .  S
C2020      C2021   1.400       .  A
C2021      C2022   1.392       .  A
C2021      H2028   1.074       .  S
C2022      S2024   1.803       .  S
S2023      H2026   1.397       .  S
S2024      H2025   1.408       .  S
C2029      C2030   1.404       .  A
C2029      C2034   1.424       .  A
C2030      C2031   1.395       .  A
C2030      H2039   1.080       .  S
C2031      C2032   1.418       .  A
C2031      S2035   1.802       .  S
C2032      C2033   1.403       .  A
C2033      C2034   1.405       .  A
C2033      H2040   1.084       .  S
C2034      S2036   1.800       .  S
S2035      H2038   1.408       .  S
S2036      H2037   1.385       .  S
C2041      C2042   1.405       .  A
C2041      C2046   1.417       .  A
C2042      C2043   1.404       .  A
C2042      H2051   1.084       .  S
C2043      C2044   1.422       .  A
C2043      S2047   1.799       .  S
C2044      C2045   1.405       .  A
C2045      C2046   1.399       .  A
C2045      H2052   1.081       .  S
C2046      S2048   1.801       .  S
S2047      H2050   1.385       .  S
S2048      H2049   1.408       .  S
C2053      C2054   1.409       .  A
C2053      C2058   1.416       .  A
C2054      C2055   1.404       .  A
C2054      H2063   1.079       .  S
C2055      C2056   1.412       .  A
C2055      S2059   1.802       .  S
C2056      C2057   1.405       .  A
C2057      C2058   1.397       .  A
C2057      H2064   1.083       .  S
C2058      S2060   1.802       .  S
S2059      H2062   1.407       .  S
S2060      H2061   1.399       .  S
C2065      C2066   1.403       .  A
C2065      C2070   1.413       .  A
C2066      C2067   1.398       .  A
C2066      H2075   1.078       .  S
C2067      C2068   1.417       .  A
C2067      S2071   1.802       .  S
C2068      C2069   1.408       .  A
C2069      C2070   1.402       .  A
C2069      H2076   1.083       .  S
C2070      S2072   1.793       .  S
S2071      H2074   1.408       .  S
S2072      H2073   1.403       .  S
C2077      C2078   1.404       .  A
C2077      C2082   1.412       .  A
C2078      C2079   1.394       .  A
C2078      H2087   1.083       .  S
C2079      C2080   1.416       .  A
C2079      S2083   1.800       .  S
C2080      C2081   1.410       .  A
C2081      C2082   1.407       .  A
C2081      H2088   1.081       .  S
C2082      S2084   1.796       .  S
S2083      H2086   1.393       .  S
S2084      H2085   1.408       .  S
C2089      C2090   1.401       .  A
C2089      C2094   1.417       .  A
C2090      C2091   1.407       .  A
C2090      H2099   1.083       .  S
C2091      C2092   1.421       .  A
C2091      S2095   1.801       .  S
C2092      C2093   1.404       .  A
C2093      C2094   1.395       .  A
C2093      H2100   1.084       .  S
C2094      S2096   1.803       .  S
S2095      H2098   1.407       .  S
S2096      H2097   1.409       .  S
C2101      C2102   1.406       .  A
C2101      C2106   1.411       .  A
C2102      C2103   1.396       .  A
C2102      H2111   1.083       .  S
C2103      C2104   1.415       .  A
C2103      S2107   1.803       .  S
C2104      C2105   1.410       .  A
C2105      C2106   1.404       .  A
C2105      H2112   1.079       .  S
C2106      S2108   1.801       .  S
S2107      H2110   1.401       .  S
S2108      H2109   1.407       .  S
C2113      C2114   1.407       .  A
C2113      C2118   1.421       .  A
C2114      C2115   1.405       .  A
C2114      H2123   1.084       .  S
C2115      C2116   1.421       .  A
C2115      S2119   1.807       .  S
C2116      C2117   1.400       .  A
C2117      C2118   1.398       .  A
C2117      H2124   1.082       .  S
C2118      S2120   1.802       .  S
S2119      H2122   1.403       .  S
S2120      H2121   1.408       .  S
C2125      C2126   1.403       .  A
C2125      C2130   1.416       .  A
C2126      C2127   1.406       .  A
C2126      H2135   1.084       .  S
C2127      C2128   1.424       .  A
C2127      S2131   1.801       .  S
C2128      C2129   1.404       .  A
C2129      C2130   1.395       .  A
C2129      H2136   1.083       .  S
C2130      S2132   1.803       .  S
S2131      H2134   1.386       .  S
S2132      H2133   1.408       .  S
C2137      C2138   1.404       .  A
C2137      C2142   1.414       .  A
C2138      C2139   1.395       .  A
C2138      H2147   1.083       .  S
C2139      C2140   1.415       .  A
C2139      S2143   1.798       .  S
C2140      C2141   1.410       .  A
C2141      C2142   1.407       .  A
C2141      H2148   1.082       .  S
C2142      S2144   1.801       .  S
S2143      H2146   1.394       .  S
S2144      H2145   1.407       .  S
C2149      C2150   1.404       .  A
C2149      C2154   1.421       .  A
C2150      C2151   1.399       .  A
C2150      H2159   1.083       .  S
C2151      C2152   1.418       .  A
C2151      S2155   1.799       .  S
C2152      C2153   1.406       .  A
C2153      C2154   1.409       .  A
C2153      H2160   1.083       .  S
C2154      S2156   1.800       .  S
S2155      H2158   1.402       .  S
S2156      H2157   1.407       .  S
C2161      C2162   1.407       .  A
C2161      C2166   1.416       .  A
C2162      C2163   1.401       .  A
C2162      H2171   1.083       .  S
C2163      C2164   1.413       .  A
C2163      S2167   1.795       .  S
C2164      C2165   1.406       .  A
C2165      C2166   1.404       .  A
C2165      H2172   1.078       .  S
C2166      S2168   1.802       .  S
S2167      H2170   1.400       .  S
S2168      H2169   1.408       .  S
C2173      C2174   1.406       .  A
C2173      C2178   1.415       .  A
C2174      C2175   1.398       .  A
C2174      H2183   1.083       .  S
C2175      C2176   1.413       .  A
C2175      S2179   1.802       .  S
C2176      C2177   1.407       .  A
C2177      C2178   1.406       .  A
C2177      H2184   1.081       .  S
C2178      S2180   1.801       .  S
S2179      H2182   1.406       .  S
S2180      H2181   1.407       .  S
C2185      C2186   1.406       .  A
C2185      C2190   1.417       .  A
C2186      C2187   1.395       .  A
C2186      H2195   1.083       .  S
C2187      C2188   1.409       .  A
C2187      S2191   1.795       .  S
C2188      C2189   1.407       .  A
C2189      C2190   1.406       .  A
C2189      H2196   1.083       .  S
C2190      S2192   1.801       .  S
S2191      H2194   1.404       .  S
S2192      H2193   1.407       .  S
C2197      C2198   1.402       .  A
C2197      C2202   1.412       .  A
C2198      C2199   1.396       .  A
C2198      H2207   1.082       .  S
C2199      C2200   1.416       .  A
C2199      S2203   1.803       .  S
C2200      C2201   1.411       .  A
C2201      C2202   1.408       .  A
C2201      H2208   1.081       .  S
C2202      S2204   1.801       .  S
S2203      H2206   1.407       .  S
S2204      H2205   1.407       .  S
C2209      C2210   1.405       .  A
C2209      C2214   1.419       .  A
C2210      C2211   1.396       .  A
C2210      H2219   1.083       .  S
C2211      C2212   1.411       .  A
C2211      S2215   1.795       .  S
C2212      C2213   1.407       .  A
C2213      C2214   1.408       .  A
C2213      H2220   1.084       .  S
C2214      S2216   1.801       .  S
S2215      H2218   1.401       .  S
S2216      H2217   1.407       .  S
C2221      C2222   1.402       .  A
C2221      C2226   1.411       .  A
C2222      C2223   1.392       .  A
C2222      H2231   1.084       .  S
C2223      C2224   1.418       .  A
C2223      S2227   1.806       .  S
C2224      C2225   1.411       .  A
C2225      C2226   1.407       .  A
C2225      H2232   1.082       .  S
C2226      S2228   1.796       .  S
S2227      H2230   1.394       .  S
S2228      H2229   1.407       .  S
C2233      C2234   1.406       .  A
C2233      C2238   1.415       .  A
C2234      C2235   1.404       .  A
C2234      H2243   1.079       .  S
C2235      C2236   1.416       .  A
C2235      S2239   1.802       .  S
C2236      C2237   1.405       .  A
C2237      C2238   1.399       .  A
C2237      H2244   1.083       .  S
C2238      S2240   1.803       .  S
S2239      H2242   1.407       .  S
S2240      H2241   1.401       .  S
C2245      C2246   1.405       .  A
C2245      C2250   1.419       .  A
C2246      C2247   1.405       .  A
C2246      H2255   1.084       .  S
C2247      C2248   1.421       .  A
C2247      S2251   1.802       .  S
C2248      C2249   1.403       .  A
C2249      C2250   1.397       .  A
C2249      H2256   1.084       .  S
C2250      S2252   1.801       .  S
S2251      H2254   1.385       .  S
S2252      H2253   1.408       .  S
C2257      C2258   1.404       .  A
C2257      C2262   1.414       .  A
C2258      C2259   1.400       .  A
C2258      H2267   1.084       .  S
C2259      C2260   1.417       .  A
C2259      S2263   1.789       .  S
C2260      C2261   1.407       .  A
C2261      C2262   1.399       .  A
C2261      H2268   1.073       .  S
C2262      S2264   1.803       .  S
S2263      H2266   1.402       .  S
S2264      H2265   1.408       .  S
C2269      C2270   1.415       .  A
C2269      C2274   1.437       .  A
C2270      C2271   1.390       .  A
C2270      H2279   1.077       .  S
C2271      C2272   1.406       .  A
C2271      S2275   1.804       .  S
C2272      C2273   1.390       .  A
C2273      C2274   1.407       .  A
C2273      H2280   1.084       .  S
C2274      S2276   1.794       .  S
S2275      H2278   1.405       .  S
S2276      H2277   1.409       .  S
