geometry optimzed in LAMMPS
_audit_creation_date              2020-12-01 
_audit_creation_method            'lammps2cif' 
_symmetry_space_group_name_H-M    'P1' 
_symmetry_Int_Tables_number       1 
_symmetry_cell_setting            triclinic 
loop_ 
_symmetry_equiv_pos_as_xyz 
  x,y,z 
_cell_length_a                    35.16152726 
_cell_length_b                    28.558552332323682 
_cell_length_c                    34.006772636056894 
_cell_angle_alpha                 91.31249350002017 
_cell_angle_beta                  89.16653838780059 
_cell_angle_gamma                 89.78321264069622 
loop_ 
_atom_site_label 
_atom_site_type_symbol 
_atom_site_fract_x 
_atom_site_fract_y 
_atom_site_fract_z 
_atom_site_charge 
N1          N  0.12358348  0.30422389  0.12540223    -0.02700
C2          C  0.09119851  0.27943255  0.13314681    -0.00100
C3          C  0.09651576  0.23246876  0.12466444    -0.23000
C4          C  0.13283486  0.22738557  0.11087880    -0.23200
C5          C  0.14903462  0.27144635  0.11099431    -0.00200
H6          H  0.07649481  0.20443181  0.12972362     0.13600
H7          H  0.14572760  0.19497648  0.10009235     0.13600
N8          N  0.12992251  0.50574578  0.12302094    -0.02700
C9          C  0.15785651  0.03485964  0.13569176    -0.00100
C10         C  0.14909441  0.08119275  0.12915797    -0.23000
C11         C  0.11461283  0.08138087  0.11191185    -0.23200
C12         C  0.10344546  0.03516106  0.10855170    -0.00200
H13         H  0.16573442  0.11173485  0.13707337     0.13600
H14         H  0.09942177  0.11197251  0.10216908     0.13600
O15         O  0.20256802  0.10171779  0.29803255    -0.80100
O16         O  0.28227654  0.42613071  0.26101283    -0.64800
O17         O  0.26545516  0.05474317  0.27031570    -1.11400
C18         C  0.18965808  0.02327710  0.16025266     1.06800
O19         O  0.30143107  0.44303729  0.20115286    -0.78000
O20         O  0.28240654  0.01579156  0.15299552    -0.65600
Ni21       Ni  0.25036119  0.08277835  0.31834062     1.34900
C22         C  0.28148880  0.06003461  0.15844062     0.85500
O23         O  0.30812372  0.99276388  0.31051877    -0.78500
O24         O  0.29835007  0.06416967  0.33866663    -0.88800
C25         C  0.29898973  0.41449867  0.22920721     0.85100
O26         O  0.22635182  0.03239279  0.34578364    -0.67000
O27         O  0.20940966  0.48606256  0.15352948    -0.86300
C28         C  0.22291182  0.48854120  0.33953662     0.85900
C29         C  0.31642067  0.02552689  0.33512637     1.07500
H30         H  0.21571704  0.47570119  0.23364944     0.39300
O31         O  0.23896775  0.49129054  0.22605015    -1.08900
O32         O  0.26858421  0.07821599  0.19062282    -0.65600
Ni33       Ni  0.23061040  0.05587775  0.22889813     1.26300
O34         O  0.23355428  0.46987507  0.30662525    -0.65800
O35         O  0.19564719  0.05323493  0.18779964    -0.78100
C36         C  0.20300625  0.12989774  0.26987739     0.85300
O37         O  0.22002143  0.11929236  0.23794142    -0.65300
Ni38       Ni  0.25567223  0.46497341  0.17753496     1.27400
Ni39       Ni  0.27309102  0.98999917  0.26867953     1.26100
H40         H  0.28871044  0.06959041  0.26178675     0.39900
N41         N  0.37717474  0.24674299  0.37429929    -0.02700
C42         C  0.40828873  0.27310839  0.36489042    -0.00100
C43         C  0.39996634  0.32021973  0.36830670    -0.23000
C44         C  0.36282749  0.32375023  0.38016292    -0.23200
C45         C  0.34916249  0.27871929  0.38367225    -0.00200
H46         H  0.41849902  0.34906383  0.36103042     0.13600
H47         H  0.34772789  0.35595060  0.38750809     0.13600
N48         N  0.37085052  0.04477991  0.38133179    -0.02700
C49         C  0.34645122  0.01485293  0.36261308    -0.00100
C50         C  0.35314929  0.46885559  0.37191950    -0.23000
C51         C  0.38240662  0.46916119  0.39718217    -0.23200
C52         C  0.39305838  0.01541083  0.40254092    -0.00200
H53         H  0.33818023  0.43811614  0.36130267     0.13600
H54         H  0.39519858  0.43843879  0.40971150     0.17000
N55         N  0.29732301  0.13393424  0.11507759    -0.02700
C56         C  0.28430680  0.08874783  0.12141420    -0.00100
C57         C  0.25877987  0.07567083  0.09274100    -0.23000
C58         C  0.25265343  0.11318468  0.06996756    -0.23200
C59         C  0.27489984  0.14927816  0.08414454    -0.00200
H60         H  0.24245247  0.04360636  0.09138798     0.13600
H61         H  0.23139574  0.11502200  0.04732415     0.13600
N62         N  0.46100009  0.13415043  0.13942202    -0.02700
C63         C  0.48465999  0.15260356  0.16824011    -0.00100
C64         C  0.01006540  0.11942684  0.18062224    -0.23000
C65         C  0.00409248  0.08010348  0.15853936    -0.23200
C66         C  0.47569150  0.08984656  0.13223849    -0.00200
H67         H  0.03274486  0.12437864  0.20149868     0.13600
H68         H  0.02222660  0.04935984  0.15824877     0.13600
O69         O  0.07822177  0.24038471  0.31408309    -0.80100
O70         O  0.42167354  0.31437874  0.25219844    -0.64800
O71         O  0.50706624  0.24344223  0.27726534    -1.11400
C72         C  0.05919568  0.29277691  0.15910833     1.06800
O73         O  0.42229350  0.30422537  0.18686289    -0.78000
O74         O  0.46677564  0.23285839  0.16983460    -0.65600
Ni75       Ni  0.02574827  0.25057330  0.33046711     1.34900
C76         C  0.49011303  0.20262316  0.18102304     0.85500
O77         O  0.43488204  0.25162168  0.30481407    -0.78500
O78         O  0.47503902  0.26270884  0.35363699    -0.88800
C79         C  0.40521144  0.31254889  0.21941869     0.85100
O80         O  0.03522085  0.31580985  0.32873548    -0.67000
O81         O  0.02530988  0.29032707  0.14632023    -0.86300
C82         C  0.01029103  0.34530601  0.31965873     0.85900
C83         C  0.44124225  0.25845093  0.34063501     1.07500
H84         H  0.99961455  0.33699210  0.22871131     0.39300
O85         O  0.99376944  0.30442710  0.22347205    -1.08900
O86         O  0.01945902  0.21374304  0.20181141    -0.65600
Ni87       Ni  0.03622936  0.26759320  0.23520116     1.26300
O88         O  0.48068437  0.33344448  0.29941150    -0.65800
O89         O  0.06627402  0.29460489  0.19520979    -0.78100
C90         C  0.09490219  0.23159116  0.28122490     0.85300
O91         O  0.07847001  0.23202482  0.24840751    -0.65300
Ni92       Ni  0.47475674  0.29838129  0.17025995     1.27400
Ni93       Ni  0.46452181  0.27967734  0.26531040     1.26100
H94         H  0.50135593  0.21075610  0.27246427     0.39900
N95         N  0.20294821  0.41498842  0.38246592    -0.02700
C96         C  0.22544033  0.39912057  0.41318878    -0.00100
C97         C  0.24748194  0.43474971  0.42830391    -0.23000
C98         C  0.24172303  0.47257782  0.40606563    -0.23200
C99         C  0.21685590  0.46004076  0.37651949    -0.00200
H100        H  0.26847623  0.43241619  0.45117065     0.13600
H101        H  0.25857077  0.50420335  0.40798886     0.13600
N102        N  0.03712617  0.41368401  0.36363644    -0.02700
C103        C  0.01349847  0.39481040  0.33481668    -0.00100
C104        C  0.48555373  0.42600976  0.32487733    -0.23000
C105        C  0.48949337  0.46413281  0.34860618    -0.23200
C106        C  0.01950716  0.45606030  0.37342431    -0.00200
H107        H  0.46252597  0.42017645  0.30455632     0.13600
H108        H  0.46924118  0.49268685  0.35075049     0.13600
O109        O  0.04588440  0.09911537  0.44748470    -0.80100
O110        O  0.46528908  0.42563066  0.99360470    -0.64800
O111        O  0.48592368  0.05391694  0.48516358    -1.11400
C112        C  0.07034349  0.02282482  0.08574101     1.06800
O113        O  0.45310340  0.44064669  0.05650872    -0.78000
O114        O  0.47355680  0.01776061  0.09821360    -0.65600
Ni115      Ni  0.99439931  0.08169722  0.43621948     1.34900
C116        C  0.47815737  0.06145773  0.09468739     0.85500
O117        O  0.43753585  0.99313020  0.44829884    -0.78500
O118        O  0.44300153  0.06539055  0.42380736    -0.88800
C119        C  0.44985894  0.41459750  0.02596927     0.85100
O120        O  0.01262814  0.02929143  0.40497492    -0.67000
O121        O  0.04820344  0.48951218  0.09604329    -0.86300
C122        C  0.01822708  0.48596900  0.41065201     0.85900
C123        C  0.42602422  0.02628784  0.42681637     1.07500
H124        H  0.03560369  0.47093446  0.01504248     0.39300
O125        O  0.01413603  0.48907398  0.02499284    -1.08900
O126        O  0.99469512  0.07863025  0.06456357    -0.65600
Ni127      Ni  0.02595053  0.05293221  0.02075549     1.26300
O128        O  0.51225350  0.46836583  0.44446722    -0.65800
O129        O  0.06561490  0.04854713  0.05618942    -0.78100
C130        C  0.05238712  0.12546706  0.47701319     0.85300
O131        O  0.03918285  0.11554136  0.51069917    -0.65300
Ni132      Ni  0.50078427  0.46570593  0.07497563     1.27400
Ni133      Ni  0.47614944  0.98938836  0.48638974     1.26100
H134        H  0.46459846  0.07000863  0.49767977     0.39900
N135        N  0.15212814  0.18301558  0.29612485    -0.02700
C136        C  0.18304589  0.17405967  0.27285627    -0.00100
C137        C  0.18719595  0.20664998  0.24390741    -0.23000
C138        C  0.15661630  0.23541507  0.24770090    -0.23200
C139        C  0.13524422  0.22023625  0.27927678    -0.00200
H140        H  0.20741798  0.20590823  0.21956534     0.13600
H141        H  0.14786656  0.25973430  0.22592147     0.13600
N142        N  0.10524899  0.17408194  0.44831459    -0.02700
C143        C  0.07536589  0.16764048  0.47350282    -0.00100
C144        C  0.07515185  0.20099922  0.50352064    -0.23000
C145        C  0.10665613  0.22760275  0.49802224    -0.23200
C146        C  0.12495612  0.21037190  0.46466604    -0.00200
H147        H  0.05653273  0.20251088  0.02917285     0.13600
H148        H  0.11786235  0.25236880  0.01913158     0.13600
O149        O  0.17935606  0.24120095  0.43173562    -0.80100
O150        O  0.31470841  0.33975348  0.00800954    -0.64800
O151        O  0.25143595  0.24701333  0.46681581    -1.11400
C152        C  0.18414966  0.27799879  0.08746630     1.06800
O153        O  0.31947202  0.30312759  0.06476752    -0.78000
O154        O  0.27423963  0.23413064  0.09065526    -0.65600
Ni155      Ni  0.23205426  0.24892287  0.41432940     1.34900
C156        C  0.26596047  0.19828514  0.06981831     0.85500
O157        O  0.31762989  0.28771392  0.44313425    -0.78500
O158        O  0.28381716  0.25640124  0.39346774    -0.88800
C159        C  0.33435151  0.32507622  0.03616083     0.85100
O160        O  0.22165438  0.31465071  0.40797841    -0.67000
O161        O  0.21374000  0.29801189  0.10164124    -0.86300
C162        C  0.23391166  0.34992269  0.42705124     0.85900
C163        C  0.31490231  0.27180403  0.40821227     1.07500
H164        H  0.23347686  0.32888033  0.02602313     0.39300
O165        O  0.24805928  0.30036632  0.02845554    -1.08900
O166        O  0.24657930  0.20177296  0.03795198    -0.65600
Ni167      Ni  0.21783757  0.25090654  0.01079377     1.26300
O168        O  0.25589986  0.34550583  0.45698917    -0.65800
O169        O  0.18365578  0.25723396  0.05399498    -0.78100
C170        C  0.16587525  0.21794047  0.46035063     0.85300
O171        O  0.18640575  0.20496699  0.48848915    -0.65300
Ni172      Ni  0.26632664  0.30022461  0.08152524     1.27400
Ni173      Ni  0.28249752  0.29535412  0.48517068     1.26100
H174        H  0.26578970  0.21818860  0.46821508     0.39900
N175        N  0.34842660  0.35984147  0.20362906    -0.02700
C176        C  0.31758881  0.36933846  0.22656628    -0.00100
C177        C  0.31250865  0.33606226  0.25498283    -0.23000
C178        C  0.34253385  0.30597501  0.25090011    -0.23200
C179        C  0.36470844  0.32213295  0.22020602    -0.00200
H180        H  0.29175091  0.33663271  0.27882551     0.13600
H181        H  0.35004976  0.27906864  0.27137908     0.13600
N182        N  0.39486525  0.36684854  0.05030828    -0.02700
C183        C  0.42581534  0.37302484  0.02661629    -0.00100
C184        C  0.42685979  0.33996576  0.99631201    -0.23000
C185        C  0.39491689  0.31340519  0.00042818    -0.23200
C186        C  0.37542851  0.33108987  0.03305035    -0.00200
H187        H  0.44687138  0.33802532  0.47182289     0.13600
H188        H  0.38494268  0.28739073  0.47940255     0.13600
C189        C  0.39812343  0.39198632  0.15898738    -0.01000
C190        C  0.35966574  0.38195554  0.16711733     0.08600
C191        C  0.33364633  0.38716985  0.13594855    -0.01200
C192        C  0.34762233  0.39883711  0.09853130    -0.01200
C193        C  0.38575532  0.38799487  0.08864436     0.08800
C194        C  0.41177058  0.38615926  0.12008918    -0.01400
Br195      Br  0.46348647  0.36511281  0.11298507     0.00100
Br196      Br  0.43124050  0.41452309  0.19989859     0.00000
Br197      Br  0.31523861  0.42936573  0.06166402     0.00100
Br198      Br  0.28050124  0.37126471  0.14052683     0.00100
C199        C  0.10222596  0.14920745  0.33962759    -0.01000
C200        C  0.14060968  0.15994124  0.33214813     0.08600
C201        C  0.16614310  0.15423538  0.36359374    -0.01200
C202        C  0.15207228  0.14126676  0.40060358    -0.01200
C203        C  0.11402631  0.15162147  0.41036000     0.08800
C204        C  0.08831565  0.15309108  0.37863044    -0.01400
Br205      Br  0.03637777  0.17072823  0.38559009     0.00100
Br206      Br  0.06954225  0.12887442  0.29753611     0.00000
Br207      Br  0.18433511  0.11165257  0.43803370     0.00100
Br208      Br  0.21802703  0.17352312  0.36078912     0.00100
C209        C  0.09513195  0.39772760  0.40457645    -0.01000
C210        C  0.07866528  0.40473095  0.36757878     0.08600
C211        C  0.10443771  0.40452739  0.33476723    -0.01200
C212        C  0.14493905  0.40289278  0.33974484    -0.01200
C213        C  0.16159939  0.40429963  0.37741132     0.08800
C214        C  0.13556789  0.39886328  0.40977190    -0.01400
Br215      Br  0.15382928  0.39109051  0.46182663     0.00100
Br216      Br  0.06180416  0.38032165  0.44711479     0.00000
Br217      Br  0.17805007  0.39206891  0.29518183     0.00100
Br218      Br  0.08479265  0.40546847  0.28245325     0.00100
C219        C  0.36502102  0.14566464  0.08888220    -0.01000
C220        C  0.33809877  0.14539891  0.12084100     0.08600
C221        C  0.35332396  0.14989499  0.15912725    -0.01200
C222        C  0.39340072  0.14713639  0.16575884    -0.01200
C223        C  0.42018117  0.14516911  0.13378177     0.08800
C224        C  0.40504621  0.14825722  0.09559779    -0.01400
Br225      Br  0.43948751  0.15943899  0.05236839     0.00100
Br226      Br  0.34876559  0.13973529  0.03505365     0.00000
Br227      Br  0.41037655  0.14348938  0.21930940     0.00100
Br228      Br  0.31908487  0.16321946  0.20262440     0.00100
C229        C  0.40848795  0.16827434  0.37972129    -0.01000
C230        C  0.37545523  0.19573498  0.37614289     0.08600
C231        C  0.34095372  0.17136966  0.37323778    -0.01200
C232        C  0.33979615  0.12435088  0.38492683    -0.01200
C233        C  0.37247979  0.09587930  0.37902145     0.08800
C234        C  0.40674318  0.11987151  0.37120072    -0.01400
Br235      Br  0.44794163  0.09149743  0.34147370     0.00100
Br236      Br  0.44684787  0.18929675  0.41511660     0.00000
Br237      Br  0.29803583  0.10513579  0.41776568     0.00100
Br238      Br  0.30883086  0.18767515  0.33071687     0.00100
C239        C  0.12620699  0.42818537  0.08847739    -0.01000
C240        C  0.12896089  0.45486542  0.12370199     0.08600
C241        C  0.13012508  0.43116814  0.15954423    -0.01200
C242        C  0.13142490  0.38166554  0.15969085    -0.01200
C243        C  0.12661124  0.35502482  0.12476299     0.08800
C244        C  0.12234447  0.37899103  0.08939993    -0.01400
Br245      Br  0.10742269  0.34475805  0.04324961     0.00100
Br246      Br  0.12945990  0.45907691  0.03901848     0.00000
Br247      Br  0.14124573  0.35036807  0.20726761     0.00100
Br248      Br  0.12677898  0.46662204  0.20827813     0.00100
N249        N  0.12358366  0.30422338  0.62540218    -0.02700
C250        C  0.09119893  0.27943205  0.63314725    -0.00100
C251        C  0.09651633  0.23246809  0.62466530    -0.23000
C252        C  0.13283529  0.22738487  0.61087913    -0.23200
C253        C  0.14903472  0.27144588  0.61099416    -0.00200
H254        H  0.07649567  0.20443103  0.62972528     0.13600
H255        H  0.14572802  0.19497581  0.60009271     0.13600
N256        N  0.12992188  0.50574489  0.62302114    -0.02700
C257        C  0.15785569  0.03486110  0.63569367    -0.00100
C258        C  0.14909341  0.08119440  0.62916047    -0.23000
C259        C  0.11461245  0.08138241  0.61191286    -0.23200
C260        C  0.10344569  0.03516240  0.60855149    -0.00200
H261        H  0.16573284  0.11173648  0.63707708     0.13600
H262        H  0.09942137  0.11197404  0.60217015     0.13600
O263        O  0.20256934  0.10171900  0.79803370    -0.80100
O264        O  0.28227750  0.42613142  0.76101258    -0.64800
O265        O  0.26545577  0.05474324  0.77031603    -1.11400
C266        C  0.18965738  0.02327812  0.66025422     1.06800
O267        O  0.30143113  0.44303774  0.70115225    -0.78000
O268        O  0.28240584  0.01579198  0.65299590    -0.65600
Ni269      Ni  0.25036282  0.08277894  0.81834087     1.34900
C270        C  0.28148823  0.06003506  0.65844100     0.85500
O271        O  0.30812363  0.99276303  0.81051909    -0.78500
O272        O  0.29835195  0.06416968  0.83866584    -0.88800
C273        C  0.29899005  0.41449927  0.72920664     0.85100
O274        O  0.22635345  0.03239376  0.84578440    -0.67000
O275        O  0.20940968  0.48606189  0.65352861    -0.86300
C276        C  0.22291195  0.48854042  0.83953611     0.85900
C277        C  0.31642165  0.02552625  0.83512603     1.07500
H278        H  0.21572154  0.47570357  0.73364755     0.39300
O279        O  0.23896743  0.49129009  0.72604969    -1.08900
O280        O  0.26858404  0.07821638  0.69062335    -0.65600
Ni281      Ni  0.23061061  0.05587842  0.72889908     1.26300
O282        O  0.23355455  0.46987464  0.80662473    -0.65800
O283        O  0.19564686  0.05323584  0.68780120    -0.78100
C284        C  0.20300706  0.12989843  0.76987814     0.85300
O285        O  0.22002247  0.11929312  0.73794236    -0.65300
Ni286      Ni  0.25567220  0.46497326  0.67753443     1.27400
Ni287      Ni  0.27309066  0.98999904  0.76868009     1.26100
H288        H  0.28871048  0.06958955  0.76178693     0.39900
N289        N  0.37717441  0.24674201  0.87429942    -0.02700
C290        C  0.40828809  0.27310753  0.86489001    -0.00100
C291        C  0.39996511  0.32021876  0.86830561    -0.23000
C292        C  0.36282624  0.32374935  0.88016204    -0.23200
C293        C  0.34916194  0.27871817  0.88367213    -0.00200
H294        H  0.41849760  0.34906266  0.86102826     0.13600
H295        H  0.34772631  0.35594956  0.88750688     0.13600
N296        N  0.37085116  0.04477915  0.88133196    -0.02700
C297        C  0.34645258  0.01485210  0.86261229    -0.00100
C298        C  0.35314824  0.46885671  0.87192021    -0.23000
C299        C  0.38240595  0.46916124  0.89718241    -0.23200
C300        C  0.39305917  0.01541017  0.90254087    -0.00200
H301        H  0.33817868  0.43811755  0.86130338     0.13600
H302        H  0.39519753  0.43843846  0.90971131     0.17000
N303        N  0.29732206  0.13393455  0.61507737    -0.02700
C304        C  0.28430540  0.08874852  0.62141460    -0.00100
C305        C  0.25877804  0.07567179  0.59274185    -0.23000
C306        C  0.25265163  0.11318528  0.56996812    -0.23200
C307        C  0.27489869  0.14927844  0.58414443    -0.00200
H308        H  0.24244988  0.04360780  0.59138950     0.13600
H309        H  0.23139368  0.11502239  0.54732499     0.13600
N310        N  0.46099922  0.13415120  0.63942173    -0.02700
C311        C  0.48465889  0.15260434  0.66824001    -0.00100
C312        C  0.01006392  0.11942796  0.68062236    -0.23000
C313        C  0.00409171  0.08010464  0.65853942    -0.23200
C314        C  0.47569100  0.08984745  0.63223827    -0.00200
H315        H  0.03274315  0.12438023  0.70149906     0.13600
H316        H  0.02222622  0.04936130  0.65824928     0.13600
O317        O  0.07822146  0.24038420  0.81408295    -0.80100
O318        O  0.42167257  0.31437864  0.75219795    -0.64800
O319        O  0.50706521  0.24344209  0.77726465    -1.11400
C320        C  0.05919631  0.29277697  0.65910873     1.06800
O321        O  0.42229309  0.30422616  0.68686228    -0.78000
O322        O  0.46677488  0.23285937  0.66983394    -0.65600
Ni323      Ni  0.02574795  0.25057264  0.83046713     1.34900
C324        C  0.49011217  0.20262407  0.68102240     0.85500
O325        O  0.43488118  0.25162135  0.80481353    -0.78500
O326        O  0.47503841  0.26270763  0.85363643    -0.88800
C327        C  0.40521079  0.31254917  0.71941801     0.85100
O328        O  0.03522097  0.31580921  0.82873689    -0.67000
O329        O  0.02531055  0.29032811  0.64632046    -0.86300
C330        C  0.01029197  0.34530608  0.81965953     0.85900
C331        C  0.44124158  0.25845006  0.84063450     1.07500
H332        H  0.99961600  0.33699358  0.72871162     0.39300
O333        O  0.99377028  0.30442802  0.72347219    -1.08900
O334        O  0.01945840  0.21374342  0.70181130    -0.65600
Ni335      Ni  0.03622947  0.26759296  0.73520129     1.26300
O336        O  0.48068355  0.33344415  0.79941131    -0.65800
O337        O  0.06627465  0.29460424  0.69521021    -0.78100
C338        C  0.09490172  0.23159029  0.78122473     0.85300
O339        O  0.07846934  0.23202343  0.74840748    -0.65300
Ni340      Ni  0.47475625  0.29838220  0.67025952     1.27400
Ni341      Ni  0.46452084  0.27967727  0.76530994     1.26100
H342        H  0.50135498  0.21075599  0.77246321     0.39900
N343        N  0.20294973  0.41498782  0.88246607    -0.02700
C344        C  0.22544199  0.39911979  0.91318866    -0.00100
C345        C  0.24748524  0.43474824  0.92830245    -0.23000
C346        C  0.24172714  0.47257636  0.90606376    -0.23200
C347        C  0.21685840  0.46003961  0.87651883    -0.00200
H348        H  0.26847979  0.43241382  0.95116888     0.13600
H349        H  0.25857549  0.50420133  0.90798616     0.13600
N350        N  0.03712814  0.41368408  0.86363648    -0.02700
C351        C  0.01350053  0.39481068  0.83481663    -0.00100
C352        C  0.48555284  0.42600931  0.82487732    -0.23000
C353        C  0.48949225  0.46413252  0.84860618    -0.23200
C354        C  0.01951018  0.45606130  0.87342325    -0.00200
H355        H  0.46252491  0.42017555  0.80455660     0.13600
H356        H  0.46924006  0.49268646  0.85075061     0.13600
O357        O  0.04588438  0.09911452  0.94748501    -0.80100
O358        O  0.46528966  0.42563020  0.49360444    -0.64800
O359        O  0.48592386  0.05391610  0.98516415    -1.11400
C360        C  0.07034391  0.02282602  0.58574052     1.06800
O361        O  0.45310339  0.44064626  0.55650835    -0.78000
O362        O  0.47355813  0.01776123  0.59821415    -0.65600
Ni363      Ni  0.99439898  0.08169740  0.93622032     1.34900
C364        C  0.47815750  0.06145844  0.59468732     0.85500
O365        O  0.43753643  0.99312931  0.94829902    -0.78500
O366        O  0.44300145  0.06539021  0.92380861    -0.88800
C367        C  0.44985915  0.41459705  0.52596882     0.85100
O368        O  0.01262674  0.02929152  0.90497523    -0.67000
O369        O  0.04820134  0.48951263  0.59604475    -0.86300
C370        C  0.01822867  0.48596972  0.91065126     0.85900
C371        C  0.42602454  0.02628721  0.92681697     1.07500
H372        H  0.03560281  0.47093248  0.51504302     0.39300
O373        O  0.01413501  0.48907297  0.52499350    -1.08900
O374        O  0.99469488  0.07863123  0.56456304    -0.65600
Ni375      Ni  0.02595058  0.05293328  0.52075507     1.26300
O376        O  0.51225266  0.46836543  0.94446672    -0.65800
O377        O  0.06561501  0.04854864  0.55618918    -0.78100
C378        C  0.05238755  0.12546574  0.97701368     0.85300
O379        O  0.03918324  0.11554001  0.01069965    -0.65300
Ni380      Ni  0.50078420  0.46570546  0.57497584     1.27400
Ni381      Ni  0.47614973  0.98938746  0.98639006     1.26100
H382        H  0.46459812  0.07000810  0.99768060     0.39900
N383        N  0.15212795  0.18301531  0.79612475    -0.02700
C384        C  0.18304583  0.17405966  0.77285623    -0.00100
C385        C  0.18719549  0.20664919  0.74390683    -0.23000
C386        C  0.15661566  0.23541362  0.74770053    -0.23200
C387        C  0.13524375  0.22023538  0.77927649    -0.00200
H388        H  0.20741724  0.20590757  0.71956453     0.13600
H389        H  0.14786556  0.25973267  0.72592086     0.13600
N390        N  0.10524965  0.17408085  0.94831544    -0.02700
C391        C  0.07536644  0.16763906  0.97350353    -0.00100
C392        C  0.07515219  0.20099748  0.00352156    -0.23000
C393        C  0.10665630  0.22760124  0.99802341    -0.23200
C394        C  0.12495651  0.21037081  0.96466723    -0.00200
H395        H  0.05653232  0.20251303  0.52917191     0.13600
H396        H  0.11786248  0.25237041  0.51913012     0.13600
O397        O  0.17935609  0.24120061  0.93173684    -0.80100
O398        O  0.31470766  0.33975443  0.50800966    -0.64800
O399        O  0.25143619  0.24701241  0.96681646    -1.11400
C400        C  0.18414943  0.27799865  0.58746586     1.06800
O401        O  0.31947169  0.30312747  0.56476708    -0.78000
O402        O  0.27423880  0.23413077  0.59065481    -0.65600
Ni403      Ni  0.23205413  0.24892225  0.91433019     1.34900
C404        C  0.26595984  0.19828528  0.56981777     0.85500
O405        O  0.31763033  0.28771212  0.94313458    -0.78500
O406        O  0.28381682  0.25640056  0.89346811    -0.88800
C407        C  0.33435105  0.32507644  0.53616050     0.85100
O408        O  0.22165434  0.31465005  0.90797923    -0.67000
O409        O  0.21373958  0.29801226  0.60164065    -0.86300
C410        C  0.23391245  0.34992190  0.92705156     0.85900
C411        C  0.31490221  0.27180268  0.90821252     1.07500
H412        H  0.23347600  0.32888119  0.52602296     0.39300
O413        O  0.24805879  0.30036660  0.52845526    -1.08900
O414        O  0.24657904  0.20177301  0.53795117    -0.65600
Ni415      Ni  0.21783724  0.25090678  0.51079321     1.26300
O416        O  0.25590090  0.34550479  0.95698922    -0.65800
O417        O  0.18365558  0.25723355  0.55399462    -0.78100
C418        C  0.16587551  0.21793996  0.96035185     0.85300
O419        O  0.18640619  0.20496648  0.98849019    -0.65300
Ni420      Ni  0.26632625  0.30022478  0.58152486     1.27400
Ni421      Ni  0.28249807  0.29535306  0.98517100     1.26100
H422        H  0.26578945  0.21818739  0.96821590     0.39900
N423        N  0.34842626  0.35984190  0.70362804    -0.02700
C424        C  0.31758836  0.36933880  0.72656509    -0.00100
C425        C  0.31250766  0.33606235  0.75498114    -0.23000
C426        C  0.34253269  0.30597510  0.75089817    -0.23200
C427        C  0.36470781  0.32213327  0.72020478    -0.00200
H428        H  0.29174975  0.33663260  0.77882368     0.13600
H429        H  0.35004852  0.27906856  0.77137719     0.13600
N430        N  0.39486518  0.36684842  0.55030766    -0.02700
C431        C  0.42581517  0.37302456  0.52661555    -0.00100
C432        C  0.42685916  0.33996545  0.49631111    -0.23000
C433        C  0.39491613  0.31340488  0.50042726    -0.23200
C434        C  0.37542808  0.33108987  0.53304966    -0.00200
H435        H  0.44687199  0.33802583  0.97182375     0.13600
H436        H  0.38494360  0.28739090  0.97940338     0.13600
C437        C  0.39812338  0.39198666  0.65898674    -0.01000
C438        C  0.35966560  0.38195605  0.66711647     0.08600
C439        C  0.33364623  0.38717055  0.63594769    -0.01200
C440        C  0.34762238  0.39883760  0.59853051    -0.01200
C441        C  0.38575535  0.38799504  0.58864372     0.08800
C442        C  0.41177064  0.38615955  0.62008858    -0.01400
Br443      Br  0.46348663  0.36511329  0.61298447     0.00100
Br444      Br  0.43124040  0.41452331  0.69989814     0.00000
Br445      Br  0.31523878  0.42936609  0.56166302     0.00100
Br446      Br  0.28050106  0.37126559  0.64052583     0.00100
C447        C  0.10222602  0.14920774  0.83962812    -0.01000
C448        C  0.14060972  0.15994146  0.83214824     0.08600
C449        C  0.16614337  0.15423646  0.86359369    -0.01200
C450        C  0.15207297  0.14126738  0.90060353    -0.01200
C451        C  0.11402695  0.15162139  0.91036042     0.08800
C452        C  0.08831603  0.15309131  0.87863111    -0.01400
Br453      Br  0.03637842  0.17072947  0.88559143     0.00100
Br454      Br  0.06954183  0.12887429  0.79753717     0.00000
Br455      Br  0.18433649  0.11165305  0.93803283     0.00100
Br456      Br  0.21802695  0.17352583  0.86078876     0.00100
C457        C  0.09513358  0.39772820  0.90457669    -0.01000
C458        C  0.07866707  0.40473052  0.86757882     0.08600
C459        C  0.10443949  0.40452553  0.83476718    -0.01200
C460        C  0.14494079  0.40289110  0.83974490    -0.01200
C461        C  0.16160096  0.40429903  0.87741141     0.08800
C462        C  0.13556945  0.39886359  0.90977207    -0.01400
Br463      Br  0.15383091  0.39109151  0.96182679     0.00100
Br464      Br  0.06180555  0.38032428  0.94711551     0.00000
Br465      Br  0.17805219  0.39206600  0.79518229     0.00100
Br466      Br  0.08479479  0.40546353  0.78245292     0.00100
C467        C  0.36502002  0.14566449  0.58888197    -0.01000
C468        C  0.33809780  0.14539911  0.62084077     0.08600
C469        C  0.35332287  0.14989580  0.65912702    -0.01200
C470        C  0.39339965  0.14713716  0.66575863    -0.01200
C471        C  0.42018018  0.14516964  0.63378151     0.08800
C472        C  0.40504518  0.14825721  0.59559750    -0.01400
Br473      Br  0.43948626  0.15943888  0.55236795     0.00100
Br474      Br  0.34876442  0.13973414  0.53505353     0.00000
Br475      Br  0.41037536  0.14349101  0.71930923     0.00100
Br476      Br  0.31908363  0.16322108  0.70262404     0.00100
C477        C  0.40848807  0.16827369  0.87972219    -0.01000
C478        C  0.37545522  0.19573407  0.87614352     0.08600
C479        C  0.34095387  0.17136852  0.87323826    -0.01200
C480        C  0.33979648  0.12434988  0.88492755    -0.01200
C481        C  0.37248022  0.09587850  0.87902212     0.08800
C482        C  0.40674357  0.11987087  0.87120160    -0.01400
Br483      Br  0.44794239  0.09149699  0.84147501     0.00100
Br484      Br  0.44684800  0.18929673  0.91511728     0.00000
Br485      Br  0.29803532  0.10513398  0.91776494     0.00100
Br486      Br  0.30883125  0.18767367  0.83071705     0.00100
C487        C  0.12620601  0.42818469  0.58847756    -0.01000
C488        C  0.12896035  0.45486463  0.62370214     0.08600
C489        C  0.13012539  0.43116736  0.65954434    -0.01200
C490        C  0.13142563  0.38166480  0.65969083    -0.01200
C491        C  0.12661129  0.35502425  0.62476301     0.08800
C492        C  0.12234348  0.37899048  0.58940015    -0.01400
Br493      Br  0.10741980  0.34475801  0.54325038     0.00100
Br494      Br  0.12945839  0.45907610  0.53901864     0.00000
Br495      Br  0.14124795  0.35036712  0.70726720     0.00100
Br496      Br  0.12677973  0.46662121  0.70827833     0.00100
N497        N  0.12358576  0.80422223  0.12540151    -0.02700
C498        C  0.09120132  0.77943080  0.13314745    -0.00100
C499        C  0.09651925  0.73246658  0.12466687    -0.23000
C500        C  0.13283830  0.72738322  0.11088043    -0.23200
C501        C  0.14903714  0.77144468  0.11099404    -0.00200
H502        H  0.07649877  0.70442965  0.12972801     0.13600
H503        H  0.14573142  0.69497405  0.10009492     0.13600
N504        N  0.12992236  0.00574362  0.12301521    -0.02700
C505        C  0.15785547  0.53486270  0.13569895    -0.00100
C506        C  0.14909083  0.58119587  0.12916817    -0.23000
C507        C  0.11460925  0.58138304  0.11192197    -0.23200
C508        C  0.10344431  0.53516265  0.10855883    -0.00200
H509        H  0.16572956  0.61173858  0.13708492     0.13600
H510        H  0.09941695  0.61197436  0.10218042     0.13600
O511        O  0.20257044  0.60171989  0.29803387    -0.80100
O512        O  0.28227640  0.92613092  0.26100959    -0.64800
O513        O  0.26545801  0.55474371  0.27031973    -1.11400
C514        C  0.18965920  0.52328005  0.16025724     1.06800
O515        O  0.30143090  0.94303645  0.20114953    -0.78000
O516        O  0.28240552  0.51579139  0.15299656    -0.65600
Ni517      Ni  0.25036273  0.58277901  0.31834384     1.34900
C518        C  0.28149047  0.56003440  0.15844244     0.85500
O519        O  0.30812409  0.49276273  0.31052358    -0.78500
O520        O  0.29835059  0.56416867  0.33867129    -0.88800
C521        C  0.29898988  0.91449860  0.22920434     0.85100
O522        O  0.22635161  0.53239423  0.34578628    -0.67000
O523        O  0.20941060  0.98606149  0.15352433    -0.86300
C524        C  0.22291242  0.98853981  0.33953358     0.85900
C525        C  0.31642097  0.52552571  0.33513129     1.07500
H526        H  0.21571751  0.97569806  0.23364539     0.39300
O527        O  0.23896632  0.99128848  0.22604646    -1.08900
O528        O  0.26858973  0.57821569  0.19062630    -0.65600
Ni529      Ni  0.23061444  0.55588019  0.22890124     1.26300
O530        O  0.23355402  0.96987427  0.30662168    -0.65800
O531        O  0.19565155  0.55323916  0.18780242    -0.78100
C532        C  0.20300984  0.62989988  0.26987866     0.85300
O533        O  0.22002770  0.61929527  0.23794409    -0.65300
Ni534      Ni  0.25567240  0.96497259  0.17753122     1.27400
Ni535      Ni  0.27309209  0.48999935  0.26868358     1.26100
H536        H  0.28871330  0.56958989  0.26179197     0.39900
N537        N  0.37717622  0.74674168  0.37429943    -0.02700
C538        C  0.40828981  0.77310759  0.36489046    -0.00100
C539        C  0.39996583  0.82021856  0.36830441    -0.23000
C540        C  0.36282664  0.82374825  0.38015924    -0.23200
C541        C  0.34916284  0.77871720  0.38367018    -0.00200
H542        H  0.41849781  0.84906299  0.36102700     0.13600
H543        H  0.34772593  0.85594848  0.38750232     0.13600
N544        N  0.37085062  0.54477918  0.38133703    -0.02700
C545        C  0.34645153  0.51485191  0.36261805    -0.00100
C546        C  0.35314822  0.96885669  0.37191535    -0.23000
C547        C  0.38240554  0.96916177  0.39717808    -0.23200
C548        C  0.39305875  0.51541025  0.40254593    -0.00200
H549        H  0.33817822  0.93811753  0.36129927     0.13600
H550        H  0.39519717  0.93843930  0.40970749     0.17000
N551        N  0.29732378  0.63393426  0.11507815    -0.02700
C552        C  0.28430666  0.58874839  0.12141605    -0.00100
C553        C  0.25877952  0.57567140  0.09274322    -0.23000
C554        C  0.25265430  0.61318463  0.06996895    -0.23200
C555        C  0.27490111  0.64927798  0.08414477    -0.00200
H556        H  0.24245156  0.54360733  0.09139026     0.13600
H557        H  0.23139665  0.61502169  0.04732531     0.13600
N558        N  0.46100037  0.63415321  0.13942299    -0.02700
C559        C  0.48465935  0.65260620  0.16824201    -0.00100
C560        C  0.01006376  0.61942847  0.18062447    -0.23000
C561        C  0.00409060  0.58010475  0.15854218    -0.23200
C562        C  0.47569094  0.58984879  0.13224086    -0.00200
H563        H  0.03274266  0.62438019  0.20150154     0.13600
H564        H  0.02222422  0.54936059  0.15825273     0.13600
O565        O  0.07822340  0.74038634  0.31408249    -0.80100
O566        O  0.42167618  0.81438249  0.25219885    -0.64800
O567        O  0.50706744  0.74344423  0.27726564    -1.11400
C568        C  0.05919861  0.79277667  0.15910855     1.06800
O569        O  0.42229613  0.80422941  0.18686336    -0.78000
O570        O  0.46677736  0.73286213  0.16983406    -0.65600
Ni571      Ni  0.02574961  0.75057330  0.33046684     1.34900
C572        C  0.49011366  0.70262614  0.18102348     0.85500
O573        O  0.43488319  0.75162409  0.30481371    -0.78500
O574        O  0.47504016  0.76270742  0.35363738    -0.88800
C575        C  0.40521413  0.81255274  0.21941917     0.85100
O576        O  0.03522153  0.81581019  0.32873747    -0.67000
O577        O  0.02531282  0.79032884  0.14632012    -0.86300
C578        C  0.01029284  0.84530712  0.31965929     0.85900
C579        C  0.44124341  0.75845085  0.34063496     1.07500
H580        H  0.99961875  0.83699317  0.22871107     0.39300
O581        O  0.99377256  0.80442909  0.22347190    -1.08900
O582        O  0.01945967  0.71374428  0.20181130    -0.65600
Ni583      Ni  0.03623130  0.76759343  0.23520111     1.26300
O584        O  0.48068579  0.83344630  0.29941216    -0.65800
O585        O  0.06627684  0.79460404  0.19521004    -0.78100
C586        C  0.09490348  0.73159149  0.28122431     0.85300
O587        O  0.07847068  0.73202309  0.24840728    -0.65300
Ni588      Ni  0.47475926  0.79838506  0.17026042     1.27400
Ni589      Ni  0.46452358  0.77967998  0.26531068     1.26100
H590        H  0.50135638  0.71075798  0.27246428     0.39900
N591        N  0.20295048  0.91498718  0.38246388    -0.02700
C592        C  0.22544312  0.89911864  0.41318610    -0.00100
C593        C  0.24748732  0.93474666  0.42829932    -0.23000
C594        C  0.24172924  0.97257488  0.40606075    -0.23200
C595        C  0.21685955  0.96003878  0.37651642    -0.00200
H596        H  0.26848204  0.93241220  0.45116550     0.13600
H597        H  0.25857836  0.00419927  0.40798275     0.13600
N598        N  0.03712896  0.91368534  0.36363517    -0.02700
C599        C  0.01350176  0.89481195  0.33481521    -0.00100
C600        C  0.48555816  0.92601307  0.32487293    -0.23000
C601        C  0.48949987  0.96413796  0.34859934    -0.23200
C602        C  0.01951296  0.95606434  0.37341929    -0.00200
H603        H  0.46253084  0.92018021  0.30455140     0.13600
H604        H  0.46924945  0.99269413  0.35074117     0.13600
O605        O  0.04588534  0.59911186  0.44748601    -0.80100
O606        O  0.46528823  0.92563084  0.99360125    -0.64800
O607        O  0.48592533  0.55391551  0.48516810    -1.11400
C608        C  0.07034387  0.52282577  0.08574594     1.06800
O609        O  0.45310374  0.94064581  0.05650569    -0.78000
O610        O  0.47355562  0.51776282  0.09821548    -0.65600
Ni611      Ni  0.99439921  0.58169591  0.43622360     1.34900
C612        C  0.47815836  0.56145969  0.09468981     0.85500
O613        O  0.43753820  0.49312838  0.44830169    -0.78500
O614        O  0.44300013  0.56539133  0.42381508    -0.88800
C615        C  0.44985889  0.91459702  0.02596607     0.85100
O616        O  0.01262477  0.52928882  0.40497807    -0.67000
O617        O  0.04820426  0.98950984  0.09603799    -0.86300
C618        C  0.01822863  0.98597118  0.41064802     0.85900
C619        C  0.42602460  0.52628721  0.42682158     1.07500
H620        H  0.03560157  0.97093637  0.01503847     0.39300
O621        O  0.01413454  0.98907431  0.02498908    -1.08900
O622        O  0.99469797  0.57863112  0.06456637    -0.65600
Ni623      Ni  0.02595284  0.55293155  0.02075839     1.26300
O624        O  0.51225053  0.96836624  0.44446248    -0.65800
O625        O  0.06561726  0.54854636  0.05619278    -0.78100
C626        C  0.05238988  0.62546298  0.47701442     0.85300
O627        O  0.03918759  0.61553696  0.51070123    -0.65300
Ni628      Ni  0.50078497  0.96570471  0.07497164     1.27400
Ni629      Ni  0.47615107  0.48938680  0.48639357     1.26100
H630        H  0.46460029  0.57000712  0.49768513     0.39900
N631        N  0.15212975  0.68301650  0.29612416    -0.02700
C632        C  0.18304769  0.67406073  0.27285556    -0.00100
C633        C  0.18719721  0.70665017  0.24390573    -0.23000
C634        C  0.15661719  0.73541484  0.24769949    -0.23200
C635        C  0.13524551  0.72023663  0.27927583    -0.00200
H636        H  0.20741926  0.70590866  0.21956382     0.13600
H637        H  0.14786683  0.75973422  0.22592028     0.13600
N638        N  0.10525084  0.67407914  0.44831505    -0.02700
C639        C  0.07536771  0.66763710  0.47350322    -0.00100
C640        C  0.07515371  0.70099527  0.50352153    -0.23000
C641        C  0.10665805  0.72759873  0.49802386    -0.23200
C642        C  0.12495785  0.71036881  0.46466722    -0.00200
H643        H  0.05653578  0.70250882  0.02917463     0.13600
H644        H  0.11786634  0.75236548  0.01913278     0.13600
O645        O  0.17935702  0.74119812  0.43173578    -0.80100
O646        O  0.31470828  0.83975429  0.00800778    -0.64800
O647        O  0.25143712  0.74701170  0.46681503    -1.11400
C648        C  0.18415169  0.77799758  0.08746540     1.06800
O649        O  0.31947295  0.80312633  0.06476459    -0.78000
O650        O  0.27424016  0.73413075  0.09065433    -0.65600
Ni651      Ni  0.23205486  0.74892105  0.41432879     1.34900
C652        C  0.26596226  0.69828482  0.06981731     0.85500
O653        O  0.31763146  0.78771030  0.44313295    -0.78500
O654        O  0.28381737  0.75640050  0.39346626    -0.88800
C655        C  0.33435200  0.82507559  0.03615805     0.85100
O656        O  0.22165410  0.81464866  0.40797773    -0.67000
O657        O  0.21374147  0.79801279  0.10163946    -0.86300
C658        C  0.23391310  0.84992066  0.42704930     0.85900
C659        C  0.31490303  0.77180187  0.40821065     1.07500
H660        H  0.23347740  0.82887879  0.02602155     0.39300
O661        O  0.24805988  0.80036618  0.02845385    -1.08900
O662        O  0.24658228  0.70177215  0.03795013    -0.65600
Ni663      Ni  0.21783930  0.75090533  0.01079254     1.26300
O664        O  0.25590228  0.84550366  0.45698643    -0.65800
O665        O  0.18365815  0.75723122  0.05399466    -0.78100
C666        C  0.16587678  0.71793816  0.46035138     0.85300
O667        O  0.18640764  0.70496558  0.48848986    -0.65300
Ni668      Ni  0.26632787  0.80022469  0.08152316     1.27400
Ni669      Ni  0.28249906  0.79535222  0.48516906     1.26100
H670        H  0.26579105  0.71818648  0.46821443     0.39900
N671        N  0.34842825  0.85984266  0.20362795    -0.02700
C672        C  0.31759006  0.86933922  0.22656475    -0.00100
C673        C  0.31251084  0.83606450  0.25498267    -0.23000
C674        C  0.34253714  0.80597894  0.25090134    -0.23200
C675        C  0.36471119  0.82213614  0.22020668    -0.00200
H676        H  0.29175308  0.83663526  0.27882531     0.13600
H677        H  0.35005402  0.77907397  0.27138129     0.13600
N678        N  0.39486571  0.86684742  0.05030534    -0.02700
C679        C  0.42581568  0.87302405  0.02661327    -0.00100
C680        C  0.42685990  0.83996532  0.99630869    -0.23000
C681        C  0.39491705  0.81340466  0.00042445    -0.23200
C682        C  0.37542888  0.83108905  0.03304697    -0.00200
H683        H  0.44687299  0.83802625  0.47182189     0.13600
H684        H  0.38494527  0.78739018  0.47940064     0.13600
C685        C  0.39812439  0.89198656  0.15898456    -0.01000
C686        C  0.35966689  0.88195526  0.16711533     0.08600
C687        C  0.33364711  0.88716784  0.13594669    -0.01200
C688        C  0.34762250  0.89883478  0.09852908    -0.01200
C689        C  0.38575561  0.88799337  0.08864166     0.08800
C690        C  0.41177110  0.88615849  0.12008625    -0.01400
Br691      Br  0.46348665  0.86511123  0.11298181     0.00100
Br692      Br  0.43124203  0.91452570  0.19989448     0.00000
Br693      Br  0.31523788  0.92936297  0.06166239     0.00100
Br694      Br  0.28050244  0.87126074  0.14052564     0.00100
C695        C  0.10222746  0.64920857  0.33962725    -0.01000
C696        C  0.14061125  0.65994249  0.33214761     0.08600
C697        C  0.16614484  0.65423676  0.36359307    -0.01200
C698        C  0.15207430  0.64126679  0.40060270    -0.01200
C699        C  0.11402821  0.65162026  0.41035971     0.08800
C700        C  0.08831740  0.65309060  0.37863035    -0.01400
Br701      Br  0.03637923  0.67072564  0.38559104     0.00100
Br702      Br  0.06954304  0.62887657  0.29753589     0.00000
Br703      Br  0.18433753  0.61165135  0.43803170     0.00100
Br704      Br  0.21802886  0.67352509  0.36078839     0.00100
C705        C  0.09513430  0.89772886  0.40457498    -0.01000
C706        C  0.07866774  0.90473130  0.36757721     0.08600
C707        C  0.10443994  0.90452560  0.33476538    -0.01200
C708        C  0.14494124  0.90289082  0.33974303    -0.01200
C709        C  0.16160158  0.90429891  0.37740943     0.08800
C710        C  0.13557020  0.89886369  0.40977015    -0.01400
Br711      Br  0.15383197  0.89108952  0.46182440     0.00100
Br712      Br  0.06180610  0.88032573  0.44711390     0.00000
Br713      Br  0.17805252  0.89206359  0.29518080     0.00100
Br714      Br  0.08479520  0.90546313  0.28245103     0.00100
C715        C  0.36502166  0.64566423  0.08888292    -0.01000
C716        C  0.33809933  0.64539889  0.12084168     0.08600
C717        C  0.35332418  0.64989491  0.15912806    -0.01200
C718        C  0.39340081  0.64713643  0.16575983    -0.01200
C719        C  0.42018140  0.64517107  0.13378285     0.08800
C720        C  0.40504665  0.64825866  0.09559879    -0.01400
Br721      Br  0.43948830  0.65943989  0.05236956     0.00100
Br722      Br  0.34876703  0.63972940  0.03505430     0.00000
Br723      Br  0.41037615  0.64348492  0.21931024     0.00100
Br724      Br  0.31908498  0.66321834  0.20262535     0.00100
C725        C  0.40848950  0.66827322  0.37972435    -0.01000
C726        C  0.37545704  0.69573386  0.37614403     0.08600
C727        C  0.34095556  0.67136878  0.37323828    -0.01200
C728        C  0.33979703  0.62435081  0.38492902    -0.01200
C729        C  0.37248054  0.59587851  0.37902575     0.08800
C730        C  0.40674447  0.61986997  0.37120543    -0.01400
Br731      Br  0.44794384  0.59149378  0.34148124     0.00100
Br732      Br  0.44684953  0.68929745  0.41511882     0.00000
Br733      Br  0.29803594  0.60513908  0.41776832     0.00100
Br734      Br  0.30883396  0.68767344  0.33071604     0.00100
C735        C  0.12620554  0.92818208  0.08847359    -0.01000
C736        C  0.12895964  0.95486344  0.12369753     0.08600
C737        C  0.13012422  0.93116760  0.15954035    -0.01200
C738        C  0.13142603  0.88166515  0.15968810    -0.01200
C739        C  0.12661263  0.85502309  0.12476091     0.08800
C740        C  0.12234396  0.87898777  0.08939743    -0.01400
Br741      Br  0.10742082  0.84475281  0.04324855     0.00100
Br742      Br  0.12945659  0.95907168  0.03901383     0.00000
Br743      Br  0.14125030  0.85036950  0.20726499     0.00100
Br744      Br  0.12677468  0.96662306  0.20827327     0.00100
N745        N  0.12358533  0.80422372  0.62540153    -0.02700
C746        C  0.09120088  0.77943218  0.63314726    -0.00100
C747        C  0.09651883  0.73246830  0.62466625    -0.23000
C748        C  0.13283776  0.72738556  0.61088011    -0.23200
C749        C  0.14903686  0.77144654  0.61099411    -0.00200
H750        H  0.07649871  0.70443081  0.62972695     0.13600
H751        H  0.14573056  0.69497641  0.60009377     0.13600
N752        N  0.12992223  0.00574494  0.62301564    -0.02700
C753        C  0.15785538  0.53486178  0.63569808    -0.00100
C754        C  0.14909095  0.58119499  0.62916706    -0.23000
C755        C  0.11460877  0.58138193  0.61192199    -0.23200
C756        C  0.10344335  0.53516165  0.60855964    -0.00200
H757        H  0.16572992  0.61173768  0.63708323     0.13600
H758        H  0.09941629  0.61197317  0.60218046     0.13600
O759        O  0.20256875  0.60171866  0.79803318    -0.80100
O760        O  0.28227534  0.92613058  0.76100999    -0.64800
O761        O  0.26545691  0.55474372  0.77031937    -1.11400
C762        C  0.18965914  0.52327925  0.66025629     1.06800
O763        O  0.30143015  0.94303670  0.70115012    -0.78000
O764        O  0.28240529  0.51579153  0.65299609    -0.65600
Ni765      Ni  0.25036113  0.58277872  0.81834374     1.34900
C766        C  0.28149024  0.56003454  0.65844215     0.85500
O767        O  0.30812396  0.49276415  0.81052309    -0.78500
O768        O  0.29834910  0.56416934  0.83867196    -0.88800
C769        C  0.29898899  0.91449855  0.72920473     0.85100
O770        O  0.22635049  0.53239351  0.84578592    -0.67000
O771        O  0.20940970  0.98606242  0.65352549    -0.86300
C772        C  0.22291265  0.98854088  0.83953443     0.85900
C773        C  0.31642019  0.52552685  0.83513150     1.07500
H774        H  0.21571734  0.97569934  0.73364610     0.39300
O775        O  0.23896580  0.99128902  0.72604730    -1.08900
O776        O  0.26858911  0.57821542  0.69062606    -0.65600
Ni777      Ni  0.23061355  0.55587969  0.72890074     1.26300
O778        O  0.23355350  0.96987496  0.80662246    -0.65800
O779        O  0.19565123  0.55323838  0.68780144    -0.78100
C780        C  0.20300839  0.62989902  0.76987820     0.85300
O781        O  0.22002634  0.61929466  0.73794361    -0.65300
Ni782      Ni  0.25567160  0.96497314  0.67753198     1.27400
Ni783      Ni  0.27309187  0.48999976  0.76868319     1.26100
H784        H  0.28871339  0.56959092  0.76179126     0.39900
N785        N  0.37717663  0.74674234  0.87429981    -0.02700
C786        C  0.40829060  0.77310760  0.86489087    -0.00100
C787        C  0.39996767  0.82021876  0.86830573    -0.23000
C788        C  0.36282856  0.82374930  0.88016091    -0.23200
C789        C  0.34916382  0.77871853  0.88367117    -0.00200
H790        H  0.41850023  0.84906265  0.86102840     0.13600
H791        H  0.34772829  0.85594974  0.88750443     0.13600
N792        N  0.37085025  0.54477968  0.88133708    -0.02700
C793        C  0.34645063  0.51485292  0.86261860    -0.00100
C794        C  0.35315029  0.96885579  0.87191380    -0.23000
C795        C  0.38240714  0.96916120  0.89717703    -0.23200
C796        C  0.39305855  0.51541035  0.90254570    -0.00200
H797        H  0.33818145  0.93811624  0.86129670     0.13600
H798        H  0.39519916  0.93843885  0.90970635     0.17000
N799        N  0.29732363  0.63393458  0.61507826    -0.02700
C800        C  0.28430652  0.58874882  0.62141586    -0.00100
C801        C  0.25877943  0.57567215  0.59274285    -0.23000
C802        C  0.25265379  0.61318528  0.56996847    -0.23200
C803        C  0.27490077  0.64927849  0.58414483    -0.00200
H804        H  0.24245120  0.54360824  0.59139044     0.13600
H805        H  0.23139628  0.61502208  0.54732482     0.13600
N806        N  0.46100052  0.63415261  0.63942319    -0.02700
C807        C  0.48465968  0.65260608  0.66824177    -0.00100
C808        C  0.01006494  0.61942882  0.68062397    -0.23000
C809        C  0.00409164  0.58010504  0.65854181    -0.23200
C810        C  0.47569115  0.58984819  0.63224130    -0.00200
H811        H  0.03274419  0.62438085  0.70150059     0.13600
H812        H  0.02222541  0.54936101  0.65825210     0.13600
O813        O  0.07822367  0.74038798  0.81408289    -0.80100
O814        O  0.42167448  0.81437988  0.75219880    -0.64800
O815        O  0.50706758  0.74344406  0.77726516    -1.11400
C816        C  0.05919812  0.79277750  0.65910851     1.06800
O817        O  0.42229520  0.80422972  0.68686290    -0.78000
O818        O  0.46677653  0.73286164  0.66983457    -0.65600
Ni819      Ni  0.02574978  0.75057440  0.83046709     1.34900
C820        C  0.49011356  0.70262611  0.68102329     0.85500
O821        O  0.43488336  0.75162227  0.80481404    -0.78500
O822        O  0.47504065  0.76270786  0.85363706    -0.88800
C823        C  0.40521284  0.81255176  0.71941879     0.85100
O824        O  0.03522110  0.81581126  0.82873701    -0.67000
O825        O  0.02531236  0.79032903  0.64632020    -0.86300
C826        C  0.01029183  0.84530760  0.81965916     0.85900
C827        C  0.44124386  0.75845030  0.84063512     1.07500
H828        H  0.99961744  0.83699334  0.72871139     0.39300
O829        O  0.99377189  0.80442942  0.72347217    -1.08900
O830        O  0.01946006  0.71374481  0.70181155    -0.65600
Ni831      Ni  0.03623122  0.76759447  0.73520129     1.26300
O832        O  0.48068468  0.83344567  0.79941196    -0.65800
O833        O  0.06627636  0.79460537  0.69520999    -0.78100
C834        C  0.09490392  0.73159314  0.78122481     0.85300
O835        O  0.07847132  0.73202511  0.74840761    -0.65300
Ni836      Ni  0.47475838  0.79838456  0.67026011     1.27400
Ni837      Ni  0.46452290  0.77967879  0.76531051     1.26100
H838        H  0.50135765  0.71075789  0.77246377     0.39900
N839        N  0.20294898  0.91498807  0.88246398    -0.02700
C840        C  0.22544115  0.89911987  0.91318671    -0.00100
C841        C  0.24748381  0.93474861  0.92830130    -0.23000
C842        C  0.24172543  0.97257700  0.90606293    -0.23200
C843        C  0.21685745  0.96004018  0.87651723    -0.00200
H844        H  0.26847799  0.93241445  0.95116801     0.13600
H845        H  0.25857345  0.00420216  0.90798590     0.13600
N846        N  0.03712744  0.91368575  0.86363510    -0.02700
C847        C  0.01350005  0.89481225  0.83481540    -0.00100
C848        C  0.48555712  0.92601269  0.82487387    -0.23000
C849        C  0.48949836  0.96413701  0.84860066    -0.23200
C850        C  0.01951107  0.95606430  0.87341982    -0.00200
H851        H  0.46252959  0.92018015  0.80455234     0.13600
H852        H  0.46924749  0.99269265  0.85074309     0.13600
O853        O  0.04588536  0.59911355  0.94748613    -0.80100
O854        O  0.46528782  0.92563190  0.49360139    -0.64800
O855        O  0.48592555  0.55391572  0.98516742    -1.11400
C856        C  0.07034301  0.52282465  0.58574655     1.06800
O857        O  0.45310372  0.94064752  0.55650575    -0.78000
O858        O  0.47355550  0.51776224  0.59821590    -0.65600
Ni859      Ni  0.99439965  0.58169635  0.93622295     1.34900
C860        C  0.47815857  0.56145908  0.59469037     0.85500
O861        O  0.43753765  0.49312864  0.94830183    -0.78500
O862        O  0.44300066  0.56539082  0.92381404    -0.88800
C863        C  0.44985865  0.91459842  0.52596639     0.85100
O864        O  0.01262640  0.52928961  0.90497757    -0.67000
O865        O  0.04820502  0.98951059  0.59603724    -0.86300
C866        C  0.01822780  0.98597135  0.91064832     0.85900
C867        C  0.42602450  0.52628720  0.92682123     1.07500
H868        H  0.03560221  0.97093691  0.51503780     0.39300
O869        O  0.01413497  0.98907514  0.52498869    -1.08900
O870        O  0.99469941  0.57863066  0.56456697    -0.65600
Ni871      Ni  0.02595305  0.55293011  0.52075855     1.26300
O872        O  0.51225114  0.96836577  0.94446299    -0.65800
O873        O  0.06561775  0.54854385  0.55619232    -0.78100
C874        C  0.05238941  0.62546461  0.97701473     0.85300
O875        O  0.03918632  0.61553877  0.01070124    -0.65300
Ni876      Ni  0.50078544  0.96570539  0.57497112     1.27400
Ni877      Ni  0.47615082  0.48938713  0.98639339     1.26100
H878        H  0.46460009  0.57000799  0.99768445     0.39900
N879        N  0.15212930  0.68301668  0.79612464    -0.02700
C880        C  0.18304697  0.67406034  0.77285583    -0.00100
C881        C  0.18719724  0.70665027  0.74390662    -0.23000
C882        C  0.15661805  0.73541609  0.74770091    -0.23200
C883        C  0.13524589  0.72023774  0.77927682    -0.00200
H884        H  0.20741936  0.70590863  0.71956474     0.13600
H885        H  0.14786837  0.75973633  0.72592202     0.13600
N886        N  0.10525102  0.67407988  0.94831558    -0.02700
C887        C  0.07536813  0.66763803  0.97350421    -0.00100
C888        C  0.07515474  0.70099572  0.00352297    -0.23000
C889        C  0.10665932  0.72759870  0.99802461    -0.23200
C890        C  0.12495855  0.71036912  0.96466754    -0.00200
H891        H  0.05653442  0.70250820  0.52917301     0.13600
H892        H  0.11786434  0.75236568  0.51913230     0.13600
O893        O  0.17935751  0.74119891  0.93173571    -0.80100
O894        O  0.31470966  0.83975242  0.50800693    -0.64800
O895        O  0.25143743  0.74701264  0.96681470    -1.11400
C896        C  0.18415151  0.77799921  0.58746541     1.06800
O897        O  0.31947348  0.80312696  0.56476506    -0.78000
O898        O  0.27424078  0.73413126  0.59065445    -0.65600
Ni899      Ni  0.23205536  0.74892182  0.91432854     1.34900
C900        C  0.26596195  0.69828541  0.56981776     0.85500
O901        O  0.31763087  0.78771379  0.94313300    -0.78500
O902        O  0.28381815  0.75640104  0.89346655    -0.88800
C903        C  0.33435285  0.82507510  0.53615812     0.85100
O904        O  0.22165464  0.81464954  0.90797702    -0.67000
O905        O  0.21374172  0.79801325  0.60163969    -0.86300
C906        C  0.23391218  0.84992180  0.92704935     0.85900
C907        C  0.31490336  0.77180379  0.90821105     1.07500
H908        H  0.23347789  0.82888044  0.52602104     0.39300
O909        O  0.24806043  0.80036638  0.52845370    -1.08900
O910        O  0.24658119  0.70177289  0.53795111    -0.65600
Ni911      Ni  0.21783893  0.75090610  0.51079274     1.26300
O912        O  0.25590045  0.84550515  0.95698724    -0.65800
O913        O  0.18365758  0.75723364  0.55399440    -0.78100
C914        C  0.16587752  0.71793817  0.96035106     0.85300
O915        O  0.18640876  0.70496463  0.98848894    -0.65300
Ni916      Ni  0.26632825  0.80022511  0.58152326     1.27400
Ni917      Ni  0.28249840  0.79535391  0.98516914     1.26100
H918        H  0.26579167  0.71818793  0.96821384     0.39900
N919        N  0.34842727  0.85984269  0.70362794    -0.02700
C920        C  0.31758900  0.86933908  0.72656470    -0.00100
C921        C  0.31250931  0.83606387  0.75498204    -0.23000
C922        C  0.34253528  0.80597800  0.75090014    -0.23200
C923        C  0.36470984  0.82213559  0.72020605    -0.00200
H924        H  0.29175160  0.83663448  0.77882475     0.13600
H925        H  0.35005174  0.77907253  0.77137988     0.13600
N926        N  0.39486582  0.86684824  0.55030606    -0.02700
C927        C  0.42581586  0.87302501  0.52661420    -0.00100
C928        C  0.42686065  0.83996565  0.49631010    -0.23000
C929        C  0.39491810  0.81340436  0.50042565    -0.23200
C930        C  0.37542961  0.83108913  0.53304780    -0.00200
H931        H  0.44687226  0.83802534  0.97182055     0.13600
H932        H  0.38494386  0.78739103  0.97939907     0.13600
C933        C  0.39812331  0.89198768  0.65898530    -0.01000
C934        C  0.35966591  0.88195557  0.66711552     0.08600
C935        C  0.33364629  0.88716800  0.63594672    -0.01200
C936        C  0.34762183  0.89883500  0.59852919    -0.01200
C937        C  0.38575521  0.88799438  0.58864220     0.08800
C938        C  0.41177053  0.88616035  0.62008710    -0.01400
Br939      Br  0.46348672  0.86511496  0.61298323     0.00100
Br940      Br  0.43124016  0.91452625  0.69989611     0.00000
Br941      Br  0.31523671  0.92936150  0.56166199     0.00100
Br942      Br  0.28050160  0.87126103  0.64052576     0.00100
C943        C  0.10222665  0.64921014  0.83962802    -0.01000
C944        C  0.14061065  0.65994278  0.83214810     0.08600
C945        C  0.16614439  0.65423601  0.86359335    -0.01200
C946        C  0.15207379  0.64126641  0.90060304    -0.01200
C947        C  0.11402789  0.65162094  0.91036023     0.08800
C948        C  0.08831694  0.65309257  0.87863114    -0.01400
Br949      Br  0.03637934  0.67073011  0.88559243     0.00100
Br950      Br  0.06954141  0.62887922  0.79753710     0.00000
Br951      Br  0.18433683  0.61165080  0.93803214     0.00100
Br952      Br  0.21802884  0.67352259  0.86078851     0.00100
C953        C  0.09513267  0.89772810  0.90457467    -0.01000
C954        C  0.07866619  0.90473174  0.86757710     0.08600
C955        C  0.10443841  0.90452706  0.83476539    -0.01200
C956        C  0.14493970  0.90289231  0.83974303    -0.01200
C957        C  0.16160005  0.90429964  0.87740944     0.08800
C958        C  0.13556856  0.89886328  0.90977000    -0.01400
Br959      Br  0.15382996  0.89108762  0.96182416     0.00100
Br960      Br  0.06180449  0.88032190  0.94711265     0.00000
Br961      Br  0.17805078  0.89206564  0.79518064     0.00100
Br962      Br  0.08479345  0.90546480  0.78245118     0.00100
C963        C  0.36502171  0.64566381  0.58888324    -0.01000
C964        C  0.33809935  0.64539860  0.62084196     0.08600
C965        C  0.35332434  0.64989409  0.65912839    -0.01200
C966        C  0.39340101  0.64713548  0.66576005    -0.01200
C967        C  0.42018155  0.64517041  0.63378305     0.08800
C968        C  0.40504675  0.64825777  0.59559900    -0.01400
Br969      Br  0.43948839  0.65943808  0.55236950     0.00100
Br970      Br  0.34876695  0.63972863  0.53505476     0.00000
Br971      Br  0.41037662  0.64348375  0.71931040     0.00100
Br972      Br  0.31908547  0.66321592  0.70262625     0.00100
C973        C  0.40848952  0.66827347  0.87972419    -0.01000
C974        C  0.37545713  0.69573448  0.87614450     0.08600
C975        C  0.34095556  0.67136958  0.87323903    -0.01200
C976        C  0.33979703  0.62435145  0.88492948    -0.01200
C977        C  0.37248033  0.59587897  0.87902566     0.08800
C978        C  0.40674424  0.61987025  0.87120511    -0.01400
Br979      Br  0.44794372  0.59149372  0.84148125     0.00100
Br980      Br  0.44685016  0.68929702  0.91511817     0.00000
Br981      Br  0.29803662  0.60513974  0.91776959     0.00100
Br982      Br  0.30883384  0.68767441  0.83071701     0.00100
C983        C  0.12620618  0.92818345  0.58847376    -0.01000
C984        C  0.12895936  0.95486473  0.62369781     0.08600
C985        C  0.13012293  0.93116875  0.65954057    -0.01200
C986        C  0.13142486  0.88166635  0.65968825    -0.01200
C987        C  0.12661202  0.85502444  0.62476100     0.08800
C988        C  0.12234432  0.87898915  0.58939743    -0.01400
Br989      Br  0.10742221  0.84475421  0.54324822     0.00100
Br990      Br  0.12945896  0.95907328  0.53901427     0.00000
Br991      Br  0.14124873  0.85037077  0.70726520     0.00100
Br992      Br  0.12677209  0.96662408  0.70827339     0.00100
N993        N  0.62358391  0.30422265  0.12540230    -0.02700
C994        C  0.59119917  0.27943115  0.13314708    -0.00100
C995        C  0.59651688  0.23246735  0.12466516    -0.23000
C996        C  0.63283595  0.22738436  0.11087941    -0.23200
C997        C  0.64903529  0.27144537  0.11099442    -0.00200
H998        H  0.57649625  0.20443015  0.12972480     0.13600
H999        H  0.64572859  0.19497532  0.10009269     0.13600
N1000       N  0.62992219  0.50574437  0.12302059    -0.02700
C1001       C  0.65785535  0.03486035  0.13569309    -0.00100
C1002       C  0.64909329  0.08119308  0.12915891    -0.23000
C1003       C  0.61461196  0.08138111  0.11191257    -0.23200
C1004       C  0.60344466  0.03516143  0.10855258    -0.00200
H1005       H  0.66573356  0.11173518  0.13707389     0.13600
H1006       H  0.59942121  0.11197276  0.10216912     0.13600
O1007       O  0.70257013  0.10171789  0.29803318    -0.80100
O1008       O  0.78227660  0.42613093  0.26101282    -0.64800
O1009       O  0.76545599  0.05474206  0.27031499    -1.11400
C1010       C  0.68965736  0.02327805  0.16025327     1.06800
O1011       O  0.80143101  0.44303778  0.20115287    -0.78000
O1012       O  0.78240532  0.01579069  0.15299492    -0.65600
Ni1013     Ni  0.75036368  0.08277794  0.31834002     1.34900
C1014       C  0.78148860  0.06003382  0.15844011     0.85500
O1015       O  0.80812352  0.99276160  0.31051781    -0.78500
O1016       O  0.79835293  0.06416861  0.33866443    -0.88800
C1017       C  0.79898946  0.41449892  0.22920696     0.85100
O1018       O  0.72635453  0.03239286  0.34578394    -0.67000
O1019       O  0.70940927  0.48606141  0.15352930    -0.86300
C1020       C  0.72291155  0.48854036  0.33953642     0.85900
C1021       C  0.81642220  0.02552491  0.33512456     1.07500
H1022       H  0.71571382  0.47569870  0.23365023     0.39300
O1023       O  0.73896767  0.49129037  0.22604981    -1.08900
O1024       O  0.76858454  0.07821530  0.19062252    -0.65600
Ni1025     Ni  0.73061071  0.05587793  0.22889823     1.26300
O1026       O  0.73355368  0.46987487  0.30662465    -0.65800
O1027       O  0.69564714  0.05323602  0.18780002    -0.78100
C1028       C  0.70300803  0.12989812  0.26987817     0.85300
O1029       O  0.72002299  0.11929299  0.23794201    -0.65300
Ni1030     Ni  0.75567212  0.46497303  0.17753469     1.27400
Ni1031     Ni  0.77309025  0.98999780  0.26867907     1.26100
H1032       H  0.78871191  0.06958850  0.26178534     0.39900
N1033       N  0.87717469  0.24674201  0.37429887    -0.02700
C1034       C  0.90828860  0.27310775  0.36489021    -0.00100
C1035       C  0.89996608  0.32021904  0.36830672    -0.23000
C1036       C  0.86282707  0.32374907  0.38016290    -0.23200
C1037       C  0.84916225  0.27871801  0.38367195    -0.00200
H1038       H  0.91849876  0.34906298  0.36103013     0.13600
H1039       H  0.84772705  0.35594908  0.38750834     0.13600
N1040       N  0.87085176  0.04477848  0.38133017    -0.02700
C1041       C  0.84645359  0.01485088  0.36261028    -0.00100
C1042       C  0.85314818  0.46885668  0.37192003    -0.23000
C1043       C  0.88240558  0.46916227  0.39718252    -0.23200
C1044       C  0.89305989  0.01540972  0.40253921    -0.00200
H1045       H  0.83817905  0.43811715  0.36130332     0.13600
H1046       H  0.89519751  0.43843974  0.40971176     0.17000
N1047       N  0.79732317  0.13393382  0.11507748    -0.02700
C1048       C  0.78430715  0.08874737  0.12141378    -0.00100
C1049       C  0.75878067  0.07567078  0.09274022    -0.23000
C1050       C  0.75265390  0.11318457  0.06996693    -0.23200
C1051       C  0.77490010  0.14927793  0.08414434    -0.00200
H1052       H  0.74245300  0.04360636  0.09138722     0.13600
H1053       H  0.73139623  0.11502176  0.04732352     0.13600
N1054       N  0.96100011  0.13415133  0.13942221    -0.02700
C1055       C  0.98465971  0.15260448  0.16824066    -0.00100
C1056       C  0.51006573  0.11942590  0.18062101    -0.23000
C1057       C  0.50409271  0.08010257  0.15853848    -0.23200
C1058       C  0.97569159  0.08984752  0.13223895    -0.00200
H1059       H  0.53274551  0.12437757  0.20149720     0.13600
H1060       H  0.52222729  0.04935927  0.15824791     0.13600
O1061       O  0.57822200  0.24038361  0.31408380    -0.80100
O1062       O  0.92167219  0.31437784  0.25219837    -0.64800
O1063       O  0.00706609  0.24344312  0.27726483    -1.11400
C1064       C  0.55919646  0.29277546  0.15910869     1.06800
O1065       O  0.92229291  0.30422661  0.18686252    -0.78000
O1066       O  0.96677503  0.23285930  0.16983474    -0.65600
Ni1067     Ni  0.52574834  0.25057256  0.33046759     1.34900
C1068       C  0.99011264  0.20262429  0.18102310     0.85500
O1069       O  0.93488200  0.25162090  0.30481399    -0.78500
O1070       O  0.97503903  0.26270928  0.35363669    -0.88800
C1071       C  0.90521054  0.31254909  0.21941828     0.85100
O1072       O  0.53522108  0.31580917  0.32873624    -0.67000
O1073       O  0.52531064  0.29032625  0.14632052    -0.86300
C1074       C  0.51029167  0.34530559  0.31965901     0.85900
C1075       C  0.94124225  0.25845062  0.34063486     1.07500
H1076       H  0.49961620  0.33699126  0.22871121     0.39300
O1077       O  0.49377046  0.30442598  0.22347216    -1.08900
O1078       O  0.51945929  0.21374148  0.20181170    -0.65600
Ni1079     Ni  0.53623000  0.26759143  0.23520155     1.26300
O1080       O  0.98068347  0.33344464  0.29941165    -0.65800
O1081       O  0.56627495  0.29460249  0.19521016    -0.78100
C1082       C  0.59490259  0.23158949  0.28122580     0.85300
O1083       O  0.57847047  0.23202265  0.24840832    -0.65300
Ni1084     Ni  0.97475604  0.29838228  0.17025972     1.27400
Ni1085     Ni  0.96452116  0.27967745  0.26531025     1.26100
H1086       H  0.00135609  0.21075596  0.27246326     0.39900
N1087       N  0.70294870  0.41498766  0.38246619    -0.02700
C1088       C  0.72544124  0.39911898  0.41318843    -0.00100
C1089       C  0.74748499  0.43474690  0.42830244    -0.23000
C1090       C  0.74172672  0.47257523  0.40606405    -0.23200
C1091       C  0.71685758  0.46003937  0.37651921    -0.00200
H1092       H  0.76847990  0.43241197  0.45116842     0.13600
H1093       H  0.75857570  0.50419977  0.40798619     0.13600
N1094       N  0.53712689  0.41368364  0.36363653    -0.02700
C1095       C  0.51349943  0.39481011  0.33481647    -0.00100
C1096       C  0.98555181  0.42600955  0.32487887    -0.23000
C1097       C  0.98949107  0.46413244  0.34860796    -0.23200
C1098       C  0.51950850  0.45606043  0.37342363    -0.00200
H1099       H  0.96252344  0.42017574  0.30455871     0.13600
H1100       H  0.96923856  0.49268602  0.35075296     0.13600
O1101       O  0.54588448  0.09911423  0.44748510    -0.80100
O1102       O  0.96528992  0.42563120  0.99360453    -0.64800
O1103       O  0.98592372  0.05391740  0.48516348    -1.11400
C1104       C  0.57034317  0.02282481  0.08574141     1.06800
O1105       O  0.95310410  0.44064758  0.05650849    -0.78000
O1106       O  0.97355758  0.01776129  0.09821442    -0.65600
Ni1107     Ni  0.49439937  0.08169686  0.43621960     1.34900
C1108       C  0.97815773  0.06145847  0.09468793     0.85500
O1109       O  0.93753627  0.99312990  0.44829868    -0.78500
O1110       O  0.94300155  0.06539040  0.42380754    -0.88800
C1111       C  0.94985960  0.41459830  0.02596910     0.85100
O1112       O  0.51262807  0.02929118  0.40497495    -0.67000
O1113       O  0.54820265  0.48951153  0.09604359    -0.86300
C1114       C  0.51822757  0.48596905  0.41065157     0.85900
C1115       C  0.92602473  0.02628735  0.42681595     1.07500
H1116       H  0.53560319  0.47093316  0.01504277     0.39300
O1117       O  0.51413558  0.48907305  0.02499303    -1.08900
O1118       O  0.49469543  0.07862944  0.06456343    -0.65600
Ni1119     Ni  0.52595076  0.05293135  0.02075547     1.26300
O1120       O  0.01225284  0.46836599  0.44446767    -0.65800
O1121       O  0.56561509  0.04854645  0.05618934    -0.78100
C1122       C  0.55238694  0.12546614  0.47701347     0.85300
O1123       O  0.53918284  0.11554042  0.51069948    -0.65300
Ni1124     Ni  0.00078503  0.46570657  0.07497540     1.27400
Ni1125     Ni  0.97614966  0.98938867  0.48638973     1.26100
H1126       H  0.96459778  0.07000923  0.49767973     0.39900
N1127       N  0.65212933  0.18301483  0.29612607    -0.02700
C1128       C  0.68304755  0.17406000  0.27285777    -0.00100
C1129       C  0.68719735  0.20665075  0.24390927    -0.23000
C1130       C  0.65661709  0.23541476  0.24770293    -0.23200
C1131       C  0.63524487  0.22023514  0.27927817    -0.00200
H1132       H  0.70741949  0.20591016  0.21956737     0.13600
H1133       H  0.64786692  0.25973427  0.22592378     0.13600
N1134       N  0.60524846  0.17408087  0.44831464    -0.02700
C1135       C  0.57536536  0.16763964  0.47350311    -0.00100
C1136       C  0.57515129  0.20099828  0.50352130    -0.23000
C1137       C  0.60665591  0.22760150  0.49802246    -0.23200
C1138       C  0.62495580  0.21037055  0.46466612    -0.00200
H1139       H  0.55653339  0.20250913  0.02917369     0.13600
H1140       H  0.61786340  0.25236774  0.01913164     0.13600
O1141       O  0.67935576  0.24119910  0.43173550    -0.80100
O1142       O  0.81470852  0.33975371  0.00800886    -0.64800
O1143       O  0.75143563  0.24701161  0.46681569    -1.11400
C1144       C  0.68415020  0.27799814  0.08746618     1.06800
O1145       O  0.81947246  0.30312832  0.06476705    -0.78000
O1146       O  0.77424030  0.23413053  0.09065478    -0.65600
Ni1147     Ni  0.73205390  0.24892147  0.41432924     1.34900
C1148       C  0.76596107  0.19828491  0.06981796     0.85500
O1149       O  0.81762996  0.28771161  0.44313432    -0.78500
O1150       O  0.78381680  0.25640039  0.39346754    -0.88800
C1151       C  0.83435175  0.32507706  0.03616032     0.85100
O1152       O  0.72165353  0.31464921  0.40797848    -0.67000
O1153       O  0.71374051  0.29801142  0.10164104    -0.86300
C1154       C  0.73391152  0.34992099  0.42705101     0.85900
C1155       C  0.81490216  0.27180240  0.40821214     1.07500
H1156       H  0.73347740  0.32887967  0.02602292     0.39300
O1157       O  0.74805958  0.30036600  0.02845518    -1.08900
O1158       O  0.74657986  0.20177256  0.03795166    -0.65600
Ni1159     Ni  0.71783800  0.25090591  0.01079347     1.26300
O1160       O  0.75590003  0.34550378  0.45698861    -0.65800
O1161       O  0.68365633  0.25723325  0.05399487    -0.78100
C1162       C  0.66587498  0.21793883  0.46035065     0.85300
O1163       O  0.68640548  0.20496549  0.48848923    -0.65300
Ni1164     Ni  0.76632710  0.30022461  0.08152485     1.27400
Ni1165     Ni  0.78249740  0.29535233  0.48517052     1.26100
H1166       H  0.76578913  0.21818666  0.46821491     0.39900
N1167       N  0.84842579  0.35984169  0.20362816    -0.02700
C1168       C  0.81758795  0.36933845  0.22656522    -0.00100
C1169       C  0.81250757  0.33606187  0.25498113    -0.23000
C1170       C  0.84253264  0.30597467  0.25089854    -0.23200
C1171       C  0.86470755  0.32213305  0.22020502    -0.00200
H1172       H  0.79174945  0.33663209  0.27882356     0.13600
H1173       H  0.85004830  0.27906808  0.27137749     0.13600
N1174       N  0.89486549  0.36684986  0.05030805    -0.02700
C1175       C  0.92581589  0.37302567  0.02661631    -0.00100
C1176       C  0.92686040  0.33996635  0.99631210    -0.23000
C1177       C  0.89491726  0.31340608  0.00042804    -0.23200
C1178       C  0.87542872  0.33109119  0.03304995    -0.00200
H1179       H  0.94687162  0.33802563  0.47182329     0.13600
H1180       H  0.88494281  0.28739034  0.47940300     0.13600
C1181       C  0.89812274  0.39198746  0.15898732    -0.01000
C1182       C  0.85966508  0.38195630  0.16711672     0.08600
C1183       C  0.83364586  0.38717103  0.13594781    -0.01200
C1184       C  0.84762222  0.39883855  0.09853072    -0.01200
C1185       C  0.88575531  0.38799630  0.08864413     0.08800
C1186       C  0.91177033  0.38616087  0.12008923    -0.01400
Br1187     Br  0.96348640  0.36511490  0.11298569     0.00100
Br1188     Br  0.93123903  0.41452382  0.19989936     0.00000
Br1189     Br  0.81523878  0.42936676  0.06166290     0.00100
Br1190     Br  0.78050056  0.37126675  0.14052587     0.00100
C1191       C  0.60222678  0.14920584  0.33962764    -0.01000
C1192       C  0.64061063  0.15993953  0.33214879     0.08600
C1193       C  0.66614359  0.15423329  0.36359481    -0.01200
C1194       C  0.65207203  0.14126459  0.40060437    -0.01200
C1195       C  0.61402602  0.15161977  0.41036026     0.08800
C1196       C  0.58831580  0.15308920  0.37863029    -0.01400
Br1197     Br  0.53637744  0.17072474  0.38558923     0.00100
Br1198     Br  0.56954390  0.12887233  0.29753560     0.00000
Br1199     Br  0.68433389  0.11165009  0.43803522     0.00100
Br1200     Br  0.71802792  0.17352006  0.36079138     0.00100
C1201       C  0.59513243  0.39772724  0.40457661    -0.01000
C1202       C  0.57866587  0.40473047  0.36757892     0.08600
C1203       C  0.60443829  0.40452666  0.33476737    -0.01200
C1204       C  0.64493958  0.40289171  0.33974502    -0.01200
C1205       C  0.66159983  0.40429913  0.37741148     0.08800
C1206       C  0.63556831  0.39886321  0.40977204    -0.01400
Br1207     Br  0.65382983  0.39109115  0.46182663     0.00100
Br1208     Br  0.56180461  0.38032098  0.44711485     0.00000
Br1209     Br  0.67805070  0.39206522  0.29518253     0.00100
Br1210     Br  0.58479341  0.40546741  0.28245332     0.00100
C1211       C  0.86502111  0.14566412  0.08888230    -0.01000
C1212       C  0.83809883  0.14539850  0.12084109     0.08600
C1213       C  0.85332389  0.14989439  0.15912742    -0.01200
C1214       C  0.89340064  0.14713596  0.16575901    -0.01200
C1215       C  0.92018113  0.14516957  0.13378193     0.08800
C1216       C  0.90504622  0.14825754  0.09559790    -0.01400
Br1217     Br  0.93948739  0.15943970  0.05236840     0.00100
Br1218     Br  0.84876581  0.13973291  0.03505377     0.00000
Br1219     Br  0.91037639  0.14348770  0.21930953     0.00100
Br1220     Br  0.81908475  0.16321814  0.20262472     0.00100
C1221       C  0.90848827  0.16827358  0.37972126    -0.01000
C1222       C  0.87545547  0.19573396  0.37614229     0.08600
C1223       C  0.84095415  0.17136835  0.37323650    -0.01200
C1224       C  0.83979663  0.12434941  0.38492530    -0.01200
C1225       C  0.87248055  0.09587809  0.37902035     0.08800
C1226       C  0.90674391  0.11987077  0.37120039    -0.01400
Br1227     Br  0.94794328  0.09149716  0.34147444     0.00100
Br1228     Br  0.94684798  0.18929670  0.41511659     0.00000
Br1229     Br  0.79803585  0.10513369  0.41776330     0.00100
Br1230     Br  0.80883072  0.18767503  0.33071626     0.00100
C1231       C  0.62620640  0.42818382  0.08847722    -0.01000
C1232       C  0.62896056  0.45486406  0.12370173     0.08600
C1233       C  0.63012493  0.43116697  0.15954403    -0.01200
C1234       C  0.63142494  0.38166438  0.15969080    -0.01200
C1235       C  0.62661126  0.35502355  0.12476303     0.08800
C1236       C  0.62234391  0.37898953  0.08939999    -0.01400
Br1237     Br  0.60742091  0.34475642  0.04325022     0.00100
Br1238     Br  0.62945897  0.45907492  0.03901810     0.00000
Br1239     Br  0.64124568  0.35036703  0.20726762     0.00100
Br1240     Br  0.62677862  0.46662106  0.20827782     0.00100
N1241       N  0.62358335  0.30422264  0.62540217    -0.02700
C1242       C  0.59119870  0.27943125  0.63314756    -0.00100
C1243       C  0.59651635  0.23246729  0.62466616    -0.23000
C1244       C  0.63283528  0.22738408  0.61088000    -0.23200
C1245       C  0.64903456  0.27144510  0.61099435    -0.00200
H1246       H  0.57649591  0.20443009  0.62972661     0.13600
H1247       H  0.64572802  0.19497488  0.60009392     0.13600
N1248       N  0.62992242  0.50574430  0.62302083    -0.02700
C1249       C  0.65785477  0.03486070  0.63569455    -0.00100
C1250       C  0.64909265  0.08119353  0.62916061    -0.23000
C1251       C  0.61461188  0.08138166  0.61191316    -0.23200
C1252       C  0.60344492  0.03516190  0.60855233    -0.00200
H1253       H  0.66573257  0.11173576  0.63707626     0.13600
H1254       H  0.59942109  0.11197347  0.60217015     0.13600
O1255       O  0.70257042  0.10171953  0.79803390    -0.80100
O1256       O  0.78227665  0.42613126  0.76101306    -0.64800
O1257       O  0.76545616  0.05474288  0.77031575    -1.11400
C1258       C  0.68965669  0.02327820  0.66025484     1.06800
O1259       O  0.80143100  0.44303788  0.70115306    -0.78000
O1260       O  0.78240463  0.01579073  0.65299567    -0.65600
Ni1261     Ni  0.75036407  0.08277916  0.81834044     1.34900
C1262       C  0.78148791  0.06003384  0.65844073     0.85500
O1263       O  0.80812346  0.99276201  0.81051881    -0.78500
O1264       O  0.79835341  0.06416955  0.83866440    -0.88800
C1265       C  0.79898968  0.41449927  0.72920735     0.85100
O1266       O  0.72635492  0.03239436  0.84578477    -0.67000
O1267       O  0.70940916  0.48606087  0.65352963    -0.86300
C1268       C  0.72291060  0.48854002  0.83953649     0.85900
C1269       C  0.81642243  0.02552567  0.83512500     1.07500
H1270       H  0.71571440  0.47569933  0.73365036     0.39300
O1271       O  0.73896746  0.49129039  0.72605008    -1.08900
O1272       O  0.76858431  0.07821552  0.69062321    -0.65600
Ni1273     Ni  0.73061070  0.05587854  0.72889918     1.26300
O1274       O  0.73355379  0.46987447  0.80662508    -0.65800
O1275       O  0.69564682  0.05323643  0.68780130    -0.78100
C1276       C  0.70300799  0.12989898  0.76987837     0.85300
O1277       O  0.72002322  0.11929354  0.73794245    -0.65300
Ni1278     Ni  0.75567198  0.46497274  0.67753501     1.27400
Ni1279     Ni  0.77309019  0.98999843  0.76868013     1.26100
H1280       H  0.78871125  0.06958905  0.76178623     0.39900
N1281       N  0.87717449  0.24674266  0.87429835    -0.02700
C1282       C  0.90828827  0.27310843  0.86488956    -0.00100
C1283       C  0.89996517  0.32021965  0.86830478    -0.23000
C1284       C  0.86282616  0.32374969  0.88016066    -0.23200
C1285       C  0.84916179  0.27871855  0.88367085    -0.00200
H1286       H  0.91849770  0.34906370  0.86102801     0.13600
H1287       H  0.84772599  0.35594992  0.88750485     0.13600
N1288       N  0.87085161  0.04477944  0.88133094    -0.02700
C1289       C  0.84645388  0.01485193  0.86261066    -0.00100
C1290       C  0.85314863  0.46885647  0.87191967    -0.23000
C1291       C  0.88240681  0.46916135  0.89718126    -0.23200
C1292       C  0.89305983  0.01541058  0.90253983    -0.00200
H1293       H  0.83817896  0.43811721  0.86130330     0.13600
H1294       H  0.89519907  0.43843862  0.90970966     0.17000
N1295       N  0.79732200  0.13393333  0.61507726    -0.02700
C1296       C  0.78430561  0.08874710  0.62141428    -0.00100
C1297       C  0.75877841  0.07567042  0.59274143    -0.23000
C1298       C  0.75265200  0.11318401  0.56996796    -0.23200
C1299       C  0.77489874  0.14927728  0.58414431    -0.00200
H1300       H  0.74245030  0.04360639  0.59138869     0.13600
H1301       H  0.73139399  0.11502107  0.54732477     0.13600
N1302       N  0.96099923  0.13415234  0.63942179    -0.02700
C1303       C  0.98465851  0.15260551  0.66824048    -0.00100
C1304       C  0.51006465  0.11942681  0.68062124    -0.23000
C1305       C  0.50409198  0.08010347  0.65853855    -0.23200
C1306       C  0.97569119  0.08984862  0.63223853    -0.00200
H1307       H  0.53274436  0.12437885  0.70149752     0.13600
H1308       H  0.52222655  0.04936018  0.65824792     0.13600
O1309       O  0.57822111  0.24038317  0.81408272    -0.80100
O1310       O  0.92167364  0.31438100  0.75219841    -0.64800
O1311       O  0.00706575  0.24344340  0.77726480    -1.11400
C1312       C  0.55919584  0.29277628  0.65910874     1.06800
O1313       O  0.92229364  0.30422792  0.68686280    -0.78000
O1314       O  0.96677498  0.23286072  0.66983413    -0.65600
Ni1315     Ni  0.52574758  0.25057177  0.83046685     1.34900
C1316       C  0.99011204  0.20262527  0.68102275     0.85500
O1317       O  0.93488171  0.25162285  0.80481334    -0.78500
O1318       O  0.97503863  0.26270848  0.85363658    -0.88800
C1319       C  0.90521160  0.31255112  0.71941863     0.85100
O1320       O  0.53522024  0.31580853  0.82873608    -0.67000
O1321       O  0.52531017  0.29032700  0.64632026    -0.86300
C1322       C  0.51029094  0.34530512  0.81965874     0.85900
C1323       C  0.94124189  0.25845121  0.84063436     1.07500
H1324       H  0.49961512  0.33699165  0.72871136     0.39300
O1325       O  0.49376951  0.30442644  0.72347196    -1.08900
O1326       O  0.51945844  0.21374235  0.70181097    -0.65600
Ni1327     Ni  0.53622890  0.26759192  0.73520118     1.26300
O1328       O  0.98068466  0.33344556  0.79941180    -0.65800
O1329       O  0.56627392  0.29460377  0.69521028    -0.78100
C1330       C  0.59490141  0.23158939  0.78122454     0.85300
O1331       O  0.57846905  0.23202279  0.74840730    -0.65300
Ni1332     Ni  0.97475672  0.29838359  0.67025983     1.27400
Ni1333     Ni  0.96452160  0.27967902  0.76531017     1.26100
H1334       H  0.00135527  0.21075703  0.77246326     0.39900
N1335       N  0.70294820  0.41498743  0.88246638    -0.02700
C1336       C  0.72544059  0.39911939  0.91318899    -0.00100
C1337       C  0.74748374  0.43474789  0.92830312    -0.23000
C1338       C  0.74172524  0.47257599  0.90606454    -0.23200
C1339       C  0.71685664  0.46003932  0.87651938    -0.00200
H1340       H  0.76847866  0.43241356  0.95116911     0.13600
H1341       H  0.75857369  0.50420093  0.90798693     0.13600
N1342       N  0.53712647  0.41368337  0.86363580    -0.02700
C1343       C  0.51349891  0.39480977  0.83481597    -0.00100
C1344       C  0.98555531  0.42601083  0.82487745    -0.23000
C1345       C  0.98949522  0.46413406  0.84860580    -0.23200
C1346       C  0.51950789  0.45606011  0.87342318    -0.00200
H1347       H  0.96252739  0.42017787  0.80455651     0.13600
H1348       H  0.96924344  0.49268858  0.85074963     0.13600
O1349       O  0.54588500  0.09911303  0.94748529    -0.80100
O1350       O  0.96528850  0.42563099  0.49360470    -0.64800
O1351       O  0.98592366  0.05391692  0.98516416    -1.11400
C1352       C  0.57034347  0.02282546  0.58574095     1.06800
O1353       O  0.95310258  0.44064675  0.55650877    -0.78000
O1354       O  0.97355847  0.01776211  0.59821437    -0.65600
Ni1355     Ni  0.49439954  0.08169609  0.93622023     1.34900
C1356       C  0.97815780  0.06145937  0.59468757     0.85500
O1357       O  0.93753636  0.99313014  0.94829865    -0.78500
O1358       O  0.94300094  0.06539151  0.92380898    -0.88800
C1359       C  0.94985821  0.41459773  0.52596916     0.85100
O1360       O  0.51262752  0.02929039  0.90497523    -0.67000
O1361       O  0.54820263  0.48951117  0.59604407    -0.86300
C1362       C  0.51822741  0.48596863  0.91065116     0.85900
C1363       C  0.92602446  0.02628814  0.92681669     1.07500
H1364       H  0.53560342  0.47093289  0.51504325     0.39300
O1365       O  0.51413567  0.48907268  0.52499337    -1.08900
O1366       O  0.49469465  0.07863037  0.56456290    -0.65600
Ni1367     Ni  0.52595050  0.05293251  0.52075516     1.26300
O1368       O  0.01225363  0.46836636  0.94446669    -0.65800
O1369       O  0.56561477  0.04854791  0.55618943    -0.78100
C1370       C  0.55238788  0.12546454  0.97701385     0.85300
O1371       O  0.53918335  0.11553905  0.01069973    -0.65300
Ni1372     Ni  0.00078319  0.46570651  0.57497625     1.27400
Ni1373     Ni  0.97614945  0.98938823  0.98638991     1.26100
H1374       H  0.96459793  0.07000870  0.99768080     0.39900
N1375       N  0.65212828  0.18301518  0.79612494    -0.02700
C1376       C  0.68304640  0.17406006  0.77285662    -0.00100
C1377       C  0.68719559  0.20664960  0.74390716    -0.23000
C1378       C  0.65661519  0.23541337  0.74770012    -0.23200
C1379       C  0.63524349  0.22023472  0.77927617    -0.00200
H1380       H  0.70741778  0.20590823  0.71956529     0.13600
H1381       H  0.64786475  0.25973181  0.72592026     0.13600
N1382       N  0.60524983  0.17407957  0.94831557    -0.02700
C1383       C  0.57536676  0.16763780  0.97350393    -0.00100
C1384       C  0.57515276  0.20099599  0.00352242    -0.23000
C1385       C  0.60665713  0.22759966  0.99802411    -0.23200
C1386       C  0.62495694  0.21036933  0.96466750    -0.00200
H1387       H  0.55653199  0.20251190  0.52917255     0.13600
H1388       H  0.61786270  0.25236941  0.51912985     0.13600
O1389       O  0.67935623  0.24119926  0.93173662    -0.80100
O1390       O  0.81470759  0.33975296  0.50800921    -0.64800
O1391       O  0.75143651  0.24701203  0.96681592    -1.11400
C1392       C  0.68414922  0.27799760  0.58746577     1.06800
O1393       O  0.81947151  0.30312679  0.56476695    -0.78000
O1394       O  0.77423890  0.23412976  0.59065447    -0.65600
Ni1395     Ni  0.73205410  0.24892187  0.91432977     1.34900
C1396       C  0.76595967  0.19828417  0.56981765     0.85500
O1397       O  0.81763037  0.28771211  0.94313379    -0.78500
O1398       O  0.78381658  0.25640102  0.89346732    -0.88800
C1399       C  0.83435084  0.32507586  0.53616045     0.85100
O1400       O  0.72165343  0.31464955  0.90797920    -0.67000
O1401       O  0.71373953  0.29801093  0.60164046    -0.86300
C1402       C  0.73391170  0.34992146  0.92705135     0.85900
C1403       C  0.81490210  0.27180303  0.90821156     1.07500
H1404       H  0.73347603  0.32887931  0.52602269     0.39300
O1405       O  0.74805856  0.30036534  0.52845500    -1.08900
O1406       O  0.74657859  0.20177187  0.53795124    -0.65600
Ni1407     Ni  0.71783692  0.25090549  0.51079308     1.26300
O1408       O  0.75590060  0.34550437  0.95698867    -0.65800
O1409       O  0.68365520  0.25723257  0.55399448    -0.78100
C1410       C  0.66587593  0.21793853  0.96035171     0.85300
O1411       O  0.68640680  0.20496547  0.98849003    -0.65300
Ni1412     Ni  0.76632609  0.30022375  0.58152459     1.27400
Ni1413     Ni  0.78249820  0.29535292  0.98517044     1.26100
H1414       H  0.76579002  0.21818801  0.96821487     0.39900
N1415       N  0.84842628  0.35984252  0.70362873    -0.02700
C1416       C  0.81758857  0.36933911  0.72656610    -0.00100
C1417       C  0.81250881  0.33606299  0.75498275    -0.23000
C1418       C  0.84253429  0.30597622  0.75090006    -0.23200
C1419       C  0.86470861  0.32213454  0.72020593    -0.00200
H1420       H  0.79175118  0.33663341  0.77882553     0.13600
H1421       H  0.85005065  0.27907010  0.77137912     0.13600
N1422       N  0.89486442  0.36684871  0.55030774    -0.02700
C1423       C  0.92581456  0.37302500  0.52661575    -0.00100
C1424       C  0.92685921  0.33996568  0.49631126    -0.23000
C1425       C  0.89491625  0.31340472  0.50042753    -0.23200
C1426       C  0.87542783  0.33108974  0.53304983    -0.00200
H1427       H  0.94687290  0.33802608  0.97182411     0.13600
H1428       H  0.88494393  0.28739164  0.97940343     0.13600
C1429       C  0.89812261  0.39198776  0.65898680    -0.01000
C1430       C  0.85966501  0.38195673  0.66711693     0.08600
C1431       C  0.83364542  0.38717048  0.63594824    -0.01200
C1432       C  0.84762134  0.39883734  0.59853086    -0.01200
C1433       C  0.88575436  0.38799507  0.58864390     0.08800
C1434       C  0.91176973  0.38616019  0.62008866    -0.01400
Br1435     Br  0.96348546  0.36511305  0.61298475     0.00100
Br1436     Br  0.93123942  0.41452568  0.69989774     0.00000
Br1437     Br  0.81523752  0.42936528  0.56166336     0.00100
Br1438     Br  0.78050018  0.37126592  0.64052695     0.00100
C1439       C  0.60222656  0.14920661  0.83962809    -0.01000
C1440       C  0.64061018  0.15994103  0.83214841     0.08600
C1441       C  0.66614382  0.15423565  0.86359390    -0.01200
C1442       C  0.65207328  0.14126612  0.90060364    -0.01200
C1443       C  0.61402718  0.15161989  0.91036052     0.08800
C1444       C  0.58831634  0.15308962  0.87863107    -0.01400
Br1445     Br  0.53637810  0.17072540  0.88559113     0.00100
Br1446     Br  0.56954289  0.12887258  0.79753686     0.00000
Br1447     Br  0.68433666  0.11165106  0.93803283     0.00100
Br1448     Br  0.71802756  0.17352483  0.86078953     0.00100
C1449       C  0.59513191  0.39772691  0.90457604    -0.01000
C1450       C  0.57866548  0.40472998  0.86757829     0.08600
C1451       C  0.60443806  0.40452562  0.83476683    -0.01200
C1452       C  0.64493939  0.40289103  0.83974471    -0.01200
C1453       C  0.66159946  0.40429846  0.87741130     0.08800
C1454       C  0.63556778  0.39886212  0.90977165    -0.01400
Br1455     Br  0.65382889  0.39108802  0.96182622     0.00100
Br1456     Br  0.56180371  0.38032147  0.94711413     0.00000
Br1457     Br  0.67805077  0.39206573  0.79518223     0.00100
Br1458     Br  0.58479336  0.40546428  0.78245267     0.00100
C1459       C  0.86501991  0.14566265  0.58888179    -0.01000
C1460       C  0.83809768  0.14539802  0.62084056     0.08600
C1461       C  0.85332264  0.14989585  0.65912675    -0.01200
C1462       C  0.89339944  0.14713778  0.66575847    -0.01200
C1463       C  0.92018007  0.14517009  0.63378140     0.08800
C1464       C  0.90504502  0.14825653  0.59559728    -0.01400
Br1465     Br  0.93948585  0.15943785  0.55236740     0.00100
Br1466     Br  0.84876435  0.13972962  0.53505351     0.00000
Br1467     Br  0.91037496  0.14349211  0.71930921     0.00100
Br1468     Br  0.81908320  0.16322140  0.70262348     0.00100
C1469       C  0.90848820  0.16827433  0.87972152    -0.01000
C1470       C  0.87545542  0.19573464  0.87614205     0.08600
C1471       C  0.84095417  0.17136899  0.87323591    -0.01200
C1472       C  0.83979643  0.12435036  0.88492534    -0.01200
C1473       C  0.87248039  0.09587894  0.87902107     0.08800
C1474       C  0.90674383  0.11987141  0.87120117    -0.01400
Br1475     Br  0.94794311  0.09149751  0.84147533     0.00100
Br1476     Br  0.94684765  0.18929793  0.91511699     0.00000
Br1477     Br  0.79803469  0.10513524  0.91776237     0.00100
Br1478     Br  0.80883121  0.18767500  0.83071508     0.00100
C1479       C  0.62620660  0.42818395  0.58847731    -0.01000
C1480       C  0.62896090  0.45486401  0.62370188     0.08600
C1481       C  0.63012524  0.43116683  0.65954416    -0.01200
C1482       C  0.63142493  0.38166422  0.65969087    -0.01200
C1483       C  0.62661101  0.35502354  0.62476301     0.08800
C1484       C  0.62234393  0.37898968  0.58939997    -0.01400
Br1485     Br  0.60742083  0.34475695  0.54325002     0.00100
Br1486     Br  0.62945914  0.45907547  0.53901839     0.00000
Br1487     Br  0.64124512  0.35036650  0.70726779     0.00100
Br1488     Br  0.62677985  0.46662089  0.70827808     0.00100
N1489       N  0.62358557  0.80422294  0.12540176    -0.02700
C1490       C  0.59120111  0.77943145  0.13314771    -0.00100
C1491       C  0.59651852  0.73246742  0.12466609    -0.23000
C1492       C  0.63283735  0.72738449  0.11087922    -0.23200
C1493       C  0.64903661  0.77144560  0.11099355    -0.00200
H1494       H  0.57649816  0.70443031  0.12972677     0.13600
H1495       H  0.64573023  0.69497544  0.10009291     0.13600
N1496       N  0.62992136  0.00574422  0.12301660    -0.02700
C1497       C  0.65785516  0.53486129  0.13569837    -0.00100
C1498       C  0.64909038  0.58119432  0.12916756    -0.23000
C1499       C  0.61460869  0.58138170  0.11192176    -0.23200
C1500       C  0.60344386  0.53516131  0.10855877    -0.00200
H1501       H  0.66572918  0.61173706  0.13708424     0.13600
H1502       H  0.59941635  0.61197305  0.10218037     0.13600
O1503       O  0.70256912  0.60171851  0.29803352    -0.80100
O1504       O  0.78227451  0.92612916  0.26100895    -0.64800
O1505       O  0.76545718  0.55474375  0.27031971    -1.11400
C1506       C  0.68965876  0.52327893  0.16025686     1.06800
O1507       O  0.80142921  0.94303509  0.20114903    -0.78000
O1508       O  0.78240474  0.51579132  0.15299613    -0.65600
Ni1509     Ni  0.75036143  0.58277859  0.31834385     1.34900
C1510       C  0.78148958  0.56003434  0.15844220     0.85500
O1511       O  0.80812353  0.49276345  0.31052377    -0.78500
O1512       O  0.79834945  0.56416926  0.33867157    -0.88800
C1513       C  0.79898821  0.91449705  0.22920372     0.85100
O1514       O  0.72635086  0.53239340  0.34578638    -0.67000
O1515       O  0.70940916  0.98606196  0.15352483    -0.86300
C1516       C  0.72291317  0.98854012  0.33953383     0.85900
C1517       C  0.81642020  0.52552653  0.33513137     1.07500
H1518       H  0.71571955  0.97570112  0.23364431     0.39300
O1519       O  0.73896524  0.99128831  0.22604644    -1.08900
O1520       O  0.76858914  0.57821556  0.19062619    -0.65600
Ni1521     Ni  0.73061377  0.55587981  0.22890087     1.26300
O1522       O  0.73355324  0.96987422  0.30662164    -0.65800
O1523       O  0.69565108  0.55323834  0.18780186    -0.78100
C1524       C  0.70300856  0.62989888  0.26987858     0.85300
O1525       O  0.72002622  0.61929458  0.23794379    -0.65300
Ni1526     Ni  0.75567075  0.96497215  0.17753120     1.27400
Ni1527     Ni  0.77309183  0.48999955  0.26868344     1.26100
H1528       H  0.78871222  0.56959042  0.26179206     0.39900
N1529       N  0.87717634  0.74674240  0.37429930    -0.02700
C1530       C  0.90828999  0.77310825  0.36489007    -0.00100
C1531       C  0.89996639  0.82021946  0.36830429    -0.23000
C1532       C  0.86282714  0.82374918  0.38015971    -0.23200
C1533       C  0.84916316  0.77871803  0.38367054    -0.00200
H1534       H  0.91849861  0.84906350  0.36102676     0.13600
H1535       H  0.84772624  0.85594922  0.38750288     0.13600
N1536       N  0.87085009  0.54477999  0.38133686    -0.02700
C1537       C  0.84645074  0.51485285  0.36261818    -0.00100
C1538       C  0.85315200  0.96885439  0.37191128    -0.23000
C1539       C  0.88240874  0.96916034  0.39717478    -0.23200
C1540       C  0.89305820  0.51541115  0.40254584    -0.00200
H1541       H  0.83818350  0.93811472  0.36129406     0.13600
H1542       H  0.89520079  0.93843825  0.40970445     0.17000
N1543       N  0.79732276  0.63393451  0.11507824    -0.02700
C1544       C  0.78430572  0.58874859  0.12141591    -0.00100
C1545       C  0.75877862  0.57567168  0.09274282    -0.23000
C1546       C  0.75265293  0.61318500  0.06996853    -0.23200
C1547       C  0.77489987  0.64927830  0.08414482    -0.00200
H1548       H  0.74245070  0.54360760  0.09139010     0.13600
H1549       H  0.73139517  0.61502217  0.04732518     0.13600
N1550       N  0.96099990  0.63415323  0.13942273    -0.02700
C1551       C  0.98465917  0.65260653  0.16824141    -0.00100
C1552       C  0.51006333  0.61942777  0.18062538    -0.23000
C1553       C  0.50409009  0.58010422  0.15854298    -0.23200
C1554       C  0.97569079  0.58984898  0.13224062    -0.00200
H1555       H  0.53274210  0.62437912  0.20150271     0.13600
H1556       H  0.52222347  0.54935982  0.15825397     0.13600
O1557       O  0.57822353  0.74038650  0.31408363    -0.80100
O1558       O  0.92167601  0.81438301  0.25219807    -0.64800
O1559       O  0.00706725  0.74344441  0.27726456    -1.11400
C1560       C  0.55919877  0.79277685  0.15910933     1.06800
O1561       O  0.92229583  0.80423001  0.18686253    -0.78000
O1562       O  0.96677671  0.73286232  0.16983370    -0.65600
Ni1563     Ni  0.52574972  0.75057322  0.33046791     1.34900
C1564       C  0.99011331  0.70262649  0.18102270     0.85500
O1565       O  0.93488303  0.75162478  0.30481305    -0.78500
O1566       O  0.97504022  0.76270764  0.35363656    -0.88800
C1567       C  0.90521386  0.81255307  0.21941843     0.85100
O1568       O  0.53522149  0.81581008  0.32873839    -0.67000
O1569       O  0.52531299  0.79032950  0.14632094    -0.86300
C1570       C  0.51029268  0.84530680  0.31966016     0.85900
C1571       C  0.94124341  0.75845126  0.34063431     1.07500
H1572       H  0.49961876  0.83699327  0.22871228     0.39300
O1573       O  0.49377280  0.80442876  0.22347286    -1.08900
O1574       O  0.51945992  0.71374377  0.20181229    -0.65600
Ni1575     Ni  0.53623153  0.76759309  0.23520206     1.26300
O1576       O  0.98068583  0.83344678  0.29941133    -0.65800
O1577       O  0.56627718  0.79460343  0.19521084    -0.78100
C1578       C  0.59490359  0.73159149  0.28122550     0.85300
O1579       O  0.57847086  0.73202292  0.24840840    -0.65300
Ni1580     Ni  0.97475897  0.79838513  0.17025952     1.27400
Ni1581     Ni  0.96452339  0.77968044  0.26530984     1.26100
H1582       H  0.00135641  0.71075773  0.27246291     0.39900
N1583       N  0.70295048  0.91498729  0.38246374    -0.02700
C1584       C  0.72544298  0.89911895  0.41318616    -0.00100
C1585       C  0.74748615  0.93474750  0.42830033    -0.23000
C1586       C  0.74172752  0.97257589  0.40606192    -0.23200
C1587       C  0.71685906  0.96003919  0.37651663    -0.00200
H1588       H  0.76848073  0.93241314  0.45116663     0.13600
H1589       H  0.75857560  0.00420102  0.40798448     0.13600
N1590       N  0.53712876  0.91368510  0.36363547    -0.02700
C1591       C  0.51350140  0.89481166  0.33481557    -0.00100
C1592       C  0.98555877  0.92601356  0.32487309    -0.23000
C1593       C  0.98949995  0.96413826  0.34859959    -0.23200
C1594       C  0.51951287  0.95606413  0.37341930    -0.00200
H1595       H  0.96253141  0.92018086  0.30455141     0.13600
H1596       H  0.96924940  0.99269425  0.35074137     0.13600
O1597       O  0.54588531  0.59911167  0.44748650    -0.80100
O1598       O  0.96528781  0.92563167  0.99360126    -0.64800
O1599       O  0.98592535  0.55391602  0.48516798    -1.11400
C1600       C  0.57034356  0.52282447  0.08574588     1.06800
O1601       O  0.95310329  0.94064709  0.05650564    -0.78000
O1602       O  0.97355633  0.51776310  0.09821561    -0.65600
Ni1603     Ni  0.49439919  0.58169566  0.43622388     1.34900
C1604       C  0.97815821  0.56146000  0.09468965     0.85500
O1605       O  0.93753763  0.49312927  0.44830179    -0.78500
O1606       O  0.94300001  0.56539193  0.42381483    -0.88800
C1607       C  0.94985842  0.91459805  0.02596612     0.85100
O1608       O  0.51262479  0.52928885  0.40497787    -0.67000
O1609       O  0.54820380  0.98951008  0.09603856    -0.86300
C1610       C  0.51822850  0.98597093  0.41064803     0.85900
C1611       C  0.92602415  0.52628805  0.42682158     1.07500
H1612       H  0.53560256  0.97093451  0.01503825     0.39300
O1613       O  0.51413484  0.98907340  0.02498917    -1.08900
O1614       O  0.49469867  0.57863055  0.06456669    -0.65600
Ni1615     Ni  0.52595296  0.55293051  0.02075839     1.26300
O1616       O  0.01225087  0.96836653  0.44446252    -0.65800
O1617       O  0.56561750  0.54854466  0.05619239    -0.78100
C1618       C  0.55238974  0.62546289  0.47701487     0.85300
O1619       O  0.53918708  0.61553717  0.51070159    -0.65300
Ni1620     Ni  0.00078492  0.96570524  0.07497145     1.27400
Ni1621     Ni  0.97615044  0.48938746  0.48639375     1.26100
H1622       H  0.96459961  0.57000877  0.49768556     0.39900
N1623       N  0.65212918  0.68301581  0.29612480    -0.02700
C1624       C  0.68304681  0.67405990  0.27285608    -0.00100
C1625       C  0.68719674  0.70665014  0.24390712    -0.23000
C1626       C  0.65661739  0.73541568  0.24770117    -0.23200
C1627       C  0.63524555  0.72023694  0.27927725    -0.00200
H1628       H  0.70741903  0.70590892  0.21956528     0.13600
H1629       H  0.64786763  0.75973547  0.22592216     0.13600
N1630       N  0.60525104  0.67407847  0.44831549    -0.02700
C1631       C  0.57536792  0.66763673  0.47350367    -0.00100
C1632       C  0.57515372  0.70099540  0.50352160    -0.23000
C1633       C  0.60665813  0.72759898  0.49802382    -0.23200
C1634       C  0.62495799  0.71036847  0.46466731    -0.00200
H1635       H  0.55653470  0.70250898  0.02917350     0.13600
H1636       H  0.61786493  0.75236654  0.01913130     0.13600
O1637       O  0.67935715  0.74119803  0.43173594    -0.80100
O1638       O  0.81470883  0.83975352  0.00800741    -0.64800
O1639       O  0.75143718  0.74701150  0.46681510    -1.11400
C1640       C  0.68415126  0.77799847  0.08746498     1.06800
O1641       O  0.81947295  0.80312608  0.06476460    -0.78000
O1642       O  0.77423953  0.73413101  0.09065435    -0.65600
Ni1643     Ni  0.73205501  0.74892117  0.41432888     1.34900
C1644       C  0.76596131  0.69828517  0.06981739     0.85500
O1645       O  0.81763158  0.78771086  0.44313329    -0.78500
O1646       O  0.78381764  0.75640094  0.39346654    -0.88800
C1647       C  0.83435228  0.82507498  0.03615797     0.85100
O1648       O  0.72165412  0.81464885  0.40797780    -0.67000
O1649       O  0.71374107  0.79801357  0.10163905    -0.86300
C1650       C  0.73391308  0.84992093  0.42704932     0.85900
C1651       C  0.81490326  0.77180248  0.40821096     1.07500
H1652       H  0.73347744  0.82887965  0.02602105     0.39300
O1653       O  0.74805997  0.80036632  0.02845346    -1.08900
O1654       O  0.74658133  0.70177262  0.03795021    -0.65600
Ni1655     Ni  0.71783887  0.75090588  0.01079224     1.26300
O1656       O  0.75590203  0.84550391  0.45698664    -0.65800
O1657       O  0.68365766  0.75723246  0.05399411    -0.78100
C1658       C  0.66587692  0.71793769  0.46035136     0.85300
O1659       O  0.68640783  0.70496482  0.48848971    -0.65300
Ni1660     Ni  0.76632767  0.80022491  0.08152292     1.27400
Ni1661     Ni  0.78249894  0.79535232  0.48516929     1.26100
H1662       H  0.76579066  0.71818662  0.46821445     0.39900
N1663       N  0.84842724  0.85984198  0.20362729    -0.02700
C1664       C  0.81758889  0.86933791  0.22656393    -0.00100
C1665       C  0.81251045  0.83606329  0.25498189    -0.23000
C1666       C  0.84253707  0.80597838  0.25090078    -0.23200
C1667       C  0.86471079  0.82213592  0.22020612    -0.00200
H1668       H  0.79175264  0.83663359  0.27882463     0.13600
H1669       H  0.85005417  0.77907357  0.27138081     0.13600
N1670       N  0.89486564  0.86684767  0.05030559    -0.02700
C1671       C  0.92581551  0.87302476  0.02661329    -0.00100
C1672       C  0.92686012  0.83996591  0.99630855    -0.23000
C1673       C  0.89491753  0.81340478  0.00042506    -0.23200
C1674       C  0.87542921  0.83108888  0.03304748    -0.00200
H1675       H  0.94687211  0.83802740  0.47182123     0.13600
H1676       H  0.88494461  0.78739112  0.47940047     0.13600
C1677       C  0.89812310  0.89198734  0.15898467    -0.01000
C1678       C  0.85966574  0.88195510  0.16711492     0.08600
C1679       C  0.83364615  0.88716747  0.13594607    -0.01200
C1680       C  0.84762174  0.89883470  0.09852861    -0.01200
C1681       C  0.88575506  0.88799395  0.08864165     0.08800
C1682       C  0.91177029  0.88615974  0.12008652    -0.01400
Br1683     Br  0.96348625  0.86511370  0.11298274     0.00100
Br1684     Br  0.93123962  0.91452741  0.19989507     0.00000
Br1685     Br  0.81523717  0.92936229  0.06166154     0.00100
Br1686     Br  0.78050157  0.87126003  0.14052470     0.00100
C1687       C  0.60222696  0.64920787  0.33962790    -0.01000
C1688       C  0.64061076  0.65994149  0.33214807     0.08600
C1689       C  0.66614452  0.65423560  0.36359335    -0.01200
C1690       C  0.65207419  0.64126574  0.40060304    -0.01200
C1691       C  0.61402817  0.65161943  0.41036022     0.08800
C1692       C  0.58831715  0.65309005  0.37863103    -0.01400
Br1693     Br  0.53637931  0.67072668  0.38559197     0.00100
Br1694     Br  0.56954206  0.62887689  0.29753670     0.00000
Br1695     Br  0.68433798  0.61165121  0.43803207     0.00100
Br1696     Br  0.71802839  0.67352439  0.36078834     0.00100
C1697       C  0.59513433  0.89772920  0.40457533    -0.01000
C1698       C  0.57866761  0.90473098  0.36757750     0.08600
C1699       C  0.60443978  0.90452501  0.33476565    -0.01200
C1700       C  0.64494109  0.90289038  0.33974325    -0.01200
C1701       C  0.66160154  0.90429897  0.37740958     0.08800
C1702       C  0.63557023  0.89886440  0.40977044    -0.01400
Br1703     Br  0.65383215  0.89109229  0.46182490     0.00100
Br1704     Br  0.56180651  0.88032649  0.44711468     0.00000
Br1705     Br  0.67805213  0.89206357  0.29518089     0.00100
Br1706     Br  0.58479489  0.90546203  0.28245135     0.00100
C1707       C  0.86502079  0.64566423  0.08888292    -0.01000
C1708       C  0.83809850  0.64539895  0.12084174     0.08600
C1709       C  0.85332357  0.64989491  0.15912804    -0.01200
C1710       C  0.89340027  0.64713613  0.16575957    -0.01200
C1711       C  0.92018082  0.64517096  0.13378252     0.08800
C1712       C  0.90504587  0.64825837  0.09559848    -0.01400
Br1713     Br  0.93948714  0.65943888  0.05236872     0.00100
Br1714     Br  0.84876579  0.63972941  0.03505454     0.00000
Br1715     Br  0.91037582  0.64348457  0.21930989     0.00100
Br1716     Br  0.81908461  0.66321799  0.20262567     0.00100
C1717       C  0.90848943  0.66827358  0.37972352    -0.01000
C1718       C  0.87545700  0.69573451  0.37614363     0.08600
C1719       C  0.84095538  0.67136964  0.37323813    -0.01200
C1720       C  0.83979684  0.62435167  0.38492890    -0.01200
C1721       C  0.87248020  0.59587921  0.37902533     0.08800
C1722       C  0.90674416  0.61987034  0.37120458    -0.01400
Br1723     Br  0.94794356  0.59149338  0.34148083     0.00100
Br1724     Br  0.94685002  0.68929751  0.41511748     0.00000
Br1725     Br  0.79803634  0.60514016  0.41776911     0.00100
Br1726     Br  0.80883357  0.68767422  0.33071602     0.00100
C1727       C  0.62620529  0.92818304  0.08847450    -0.01000
C1728       C  0.62895896  0.95486408  0.12369863     0.08600
C1729       C  0.63012376  0.93116795  0.15954129    -0.01200
C1730       C  0.63142607  0.88166553  0.15968867    -0.01200
C1731       C  0.62661239  0.85502378  0.12476141     0.08800
C1732       C  0.62234373  0.87898873  0.08939805    -0.01400
Br1733     Br  0.60742103  0.84475418  0.04324883     0.00100
Br1734     Br  0.62945755  0.95907309  0.03901499     0.00000
Br1735     Br  0.64125179  0.85036955  0.20726500     0.00100
Br1736     Br  0.62677431  0.96662288  0.20827450     0.00100
N1737       N  0.62358513  0.80422331  0.62540157    -0.02700
C1738       C  0.59120072  0.77943186  0.63314753    -0.00100
C1739       C  0.59651850  0.73246791  0.62466625    -0.23000
C1740       C  0.63283736  0.72738473  0.61087964    -0.23200
C1741       C  0.64903645  0.77144590  0.61099376    -0.00200
H1742       H  0.57649811  0.70443077  0.62972713     0.13600
H1743       H  0.64573012  0.69497561  0.60009334     0.13600
N1744       N  0.62992127  0.00574455  0.62301698    -0.02700
C1745       C  0.65785574  0.53486117  0.63569792    -0.00100
C1746       C  0.64909137  0.58119410  0.62916631    -0.23000
C1747       C  0.61460939  0.58138139  0.61192102    -0.23200
C1748       C  0.60344408  0.53516111  0.60855895    -0.00200
H1749       H  0.66573052  0.61173672  0.63708238     0.13600
H1750       H  0.59941698  0.61197262  0.60217945     0.13600
O1751       O  0.70256840  0.60171863  0.79803314    -0.80100
O1752       O  0.78227411  0.92612966  0.76101013    -0.64800
O1753       O  0.76545672  0.55474379  0.77032020    -1.11400
C1754       C  0.68965924  0.52327895  0.66025653     1.06800
O1755       O  0.80142902  0.94303570  0.70115033    -0.78000
O1756       O  0.78240440  0.51579098  0.65299620    -0.65600
Ni1757     Ni  0.75036022  0.58277831  0.81834437     1.34900
C1758       C  0.78148999  0.56003397  0.65844259     0.85500
O1759       O  0.80812338  0.49276370  0.81052403    -0.78500
O1760       O  0.79834788  0.56416863  0.83867311    -0.88800
C1761       C  0.79898792  0.91449756  0.72920493     0.85100
O1762       O  0.72634893  0.53239318  0.84578626    -0.67000
O1763       O  0.70940850  0.98606205  0.65352643    -0.86300
C1764       C  0.72291299  0.98854160  0.83953479     0.85900
C1765       C  0.81641939  0.52552642  0.83513227     1.07500
H1766       H  0.71571724  0.97570023  0.73364646     0.39300
O1767       O  0.73896509  0.99128894  0.72604765    -1.08900
O1768       O  0.76859018  0.57821515  0.69062687    -0.65600
Ni1769     Ni  0.73061389  0.55587996  0.72890083     1.26300
O1770       O  0.73355290  0.96987544  0.80662266    -0.65800
O1771       O  0.69565190  0.55323883  0.68780112    -0.78100
C1772       C  0.70300859  0.62989918  0.76987833     0.85300
O1773       O  0.72002652  0.61929479  0.73794368    -0.65300
Ni1774     Ni  0.75567039  0.96497246  0.67753252     1.27400
Ni1775     Ni  0.77309162  0.48999971  0.76868376     1.26100
H1776       H  0.78871174  0.56959037  0.76179295     0.39900
N1777       N  0.87717603  0.74674251  0.87429923    -0.02700
C1778       C  0.90828994  0.77310800  0.86489023    -0.00100
C1779       C  0.89996679  0.82021932  0.86830484    -0.23000
C1780       C  0.86282751  0.82374974  0.88016002    -0.23200
C1781       C  0.84916308  0.77871862  0.88367039    -0.00200
H1782       H  0.91849933  0.84906307  0.86102734     0.13600
H1783       H  0.84772714  0.85595002  0.88750370     0.13600
N1784       N  0.87085023  0.54477966  0.88133687    -0.02700
C1785       C  0.84645050  0.51485275  0.86261860    -0.00100
C1786       C  0.85315264  0.96885570  0.87191150    -0.23000
C1787       C  0.88240907  0.96916119  0.89717507    -0.23200
C1788       C  0.89305915  0.51541041  0.90254482    -0.00200
H1789       H  0.83818424  0.93811591  0.86129414     0.13600
H1790       H  0.89520135  0.93843873  0.90970390     0.17000
N1791       N  0.79732335  0.63393424  0.61507880    -0.02700
C1792       C  0.78430616  0.58874843  0.62141644    -0.00100
C1793       C  0.75877891  0.57567188  0.59274349    -0.23000
C1794       C  0.75265317  0.61318520  0.56996933    -0.23200
C1795       C  0.77490039  0.64927825  0.58414547    -0.00200
H1796       H  0.74245085  0.54360788  0.59139075     0.13600
H1797       H  0.73139536  0.61502244  0.54732607     0.13600
N1798       N  0.96100044  0.63415316  0.63942308    -0.02700
C1799       C  0.98465996  0.65260664  0.66824143    -0.00100
C1800       C  0.51006389  0.61942795  0.68062495    -0.23000
C1801       C  0.50409067  0.58010411  0.65854302    -0.23200
C1802       C  0.97569138  0.58984902  0.63224072    -0.00200
H1803       H  0.53274279  0.62437955  0.70150216     0.13600
H1804       H  0.52222442  0.54936007  0.65825377     0.13600
O1805       O  0.57822365  0.74038700  0.81408292    -0.80100
O1806       O  0.92167502  0.81438143  0.75219844    -0.64800
O1807       O  0.00706752  0.74344498  0.77726482    -1.11400
C1808       C  0.55919796  0.79277731  0.65910889     1.06800
O1809       O  0.92229525  0.80422988  0.68686270    -0.78000
O1810       O  0.96677675  0.73286212  0.66983419    -0.65600
Ni1811     Ni  0.52574995  0.75057368  0.83046730     1.34900
C1812       C  0.99011365  0.70262658  0.68102309     0.85500
O1813       O  0.93488318  0.75162357  0.80481338    -0.78500
O1814       O  0.97504023  0.76270830  0.85363671    -0.88800
C1815       C  0.90521308  0.81255243  0.71941864     0.85100
O1816       O  0.53522136  0.81581047  0.82873684    -0.67000
O1817       O  0.52531219  0.79032842  0.64632065    -0.86300
C1818       C  0.51029193  0.84530674  0.81965932     0.85900
C1819       C  0.94124345  0.75845081  0.84063460     1.07500
H1820       H  0.49961721  0.83699407  0.72871241     0.39300
O1821       O  0.49377160  0.80442857  0.72347265    -1.08900
O1822       O  0.51946004  0.71374430  0.70181162    -0.65600
Ni1823     Ni  0.53623108  0.76759393  0.73520156     1.26300
O1824       O  0.98068475  0.83344666  0.79941164    -0.65800
O1825       O  0.56627615  0.79460550  0.69521040    -0.78100
C1826       C  0.59490382  0.73159256  0.78122474     0.85300
O1827       O  0.57847120  0.73202481  0.74840759    -0.65300
Ni1828     Ni  0.97475851  0.79838506  0.67025972     1.27400
Ni1829     Ni  0.96452307  0.77968000  0.76531015     1.26100
H1830       H  0.00135692  0.71075760  0.77246312     0.39900
N1831       N  0.70294941  0.91498840  0.88246366    -0.02700
C1832       C  0.72544166  0.89911997  0.91318624    -0.00100
C1833       C  0.74748369  0.93474869  0.92830126    -0.23000
C1834       C  0.74172470  0.97257717  0.90606345    -0.23200
C1835       C  0.71685727  0.96004074  0.87651744    -0.00200
H1836       H  0.76847795  0.93241465  0.95116800     0.13600
H1837       H  0.75857261  0.00420254  0.90798685     0.13600
N1838       N  0.53712799  0.91368463  0.86363512    -0.02700
C1839       C  0.51350054  0.89481139  0.83481535    -0.00100
C1840       C  0.98555632  0.92601332  0.82487408    -0.23000
C1841       C  0.98949734  0.96413773  0.84860094    -0.23200
C1842       C  0.51951176  0.95606325  0.87341978    -0.00200
H1843       H  0.96252863  0.92018041  0.80455278     0.13600
H1844       H  0.96924634  0.99269316  0.85074349     0.13600
O1845       O  0.54588561  0.59911219  0.94748615    -0.80100
O1846       O  0.96528803  0.92563224  0.49360167    -0.64800
O1847       O  0.98592563  0.55391643  0.98516720    -1.11400
C1848       C  0.57034358  0.52282413  0.58574628     1.06800
O1849       O  0.95310373  0.94064810  0.55650598    -0.78000
O1850       O  0.97355387  0.51776359  0.59821488    -0.65600
Ni1851     Ni  0.49439965  0.58169549  0.93622314     1.34900
C1852       C  0.97815813  0.56146020  0.59468968     0.85500
O1853       O  0.93753835  0.49312898  0.94830120    -0.78500
O1854       O  0.94300093  0.56539125  0.92381341    -0.88800
C1855       C  0.94985845  0.91459904  0.52596657     0.85100
O1856       O  0.51262565  0.52928861  0.90497750    -0.67000
O1857       O  0.54820468  0.98950989  0.59603745    -0.86300
C1858       C  0.51822819  0.98597020  0.91064834     0.85900
C1859       C  0.92602509  0.52628741  0.92682046     1.07500
H1860       H  0.53560319  0.97093570  0.51503742     0.39300
O1861       O  0.51413486  0.98907450  0.52498866    -1.08900
O1862       O  0.49469897  0.57862997  0.56456733    -0.65600
Ni1863     Ni  0.52595295  0.55293009  0.52075878     1.26300
O1864       O  0.01225104  0.96836676  0.94446297    -0.65800
O1865       O  0.56561763  0.54854401  0.55619257    -0.78100
C1866       C  0.55238982  0.62546337  0.97701465     0.85300
O1867       O  0.53918693  0.61553759  0.01070126    -0.65300
Ni1868     Ni  0.00078560  0.96570611  0.57497115     1.27400
Ni1869     Ni  0.97615135  0.48938774  0.98639311     1.26100
H1870       H  0.96460079  0.57000823  0.99768387     0.39900
N1871       N  0.65212950  0.68301660  0.79612451    -0.02700
C1872       C  0.68304719  0.67406041  0.77285572    -0.00100
C1873       C  0.68719727  0.70665014  0.74390631    -0.23000
C1874       C  0.65661775  0.73541545  0.74770039    -0.23200
C1875       C  0.63524578  0.72023731  0.77927651    -0.00200
H1876       H  0.70741915  0.70590836  0.71956421     0.13600
H1877       H  0.64786773  0.75973501  0.72592120     0.13600
N1878       N  0.60525089  0.67407927  0.94831525    -0.02700
C1879       C  0.57536795  0.66763726  0.97350378    -0.00100
C1880       C  0.57515391  0.70099558  0.00352207    -0.23000
C1881       C  0.60665813  0.72759919  0.99802342    -0.23200
C1882       C  0.62495783  0.71036922  0.96466680    -0.00200
H1883       H  0.55653410  0.70250855  0.52917279     0.13600
H1884       H  0.61786428  0.75236647  0.51913180     0.13600
O1885       O  0.67935685  0.74119926  0.93173544    -0.80100
O1886       O  0.81470919  0.83975267  0.50800748    -0.64800
O1887       O  0.75143699  0.74701253  0.96681444    -1.11400
C1888       C  0.68415119  0.77799859  0.58746526     1.06800
O1889       O  0.81947319  0.80312671  0.56476535    -0.78000
O1890       O  0.77424023  0.73413104  0.59065480    -0.65600
Ni1891     Ni  0.73205476  0.74892216  0.91432831     1.34900
C1892       C  0.76596179  0.69828512  0.56981804     0.85500
O1893       O  0.81763090  0.78771266  0.94313256    -0.78500
O1894       O  0.78381745  0.75640152  0.89346598    -0.88800
C1895       C  0.83435248  0.82507517  0.53615851     0.85100
O1896       O  0.72165412  0.81464988  0.90797721    -0.67000
O1897       O  0.71374119  0.79801310  0.60163951    -0.86300
C1898       C  0.73391238  0.84992197  0.92704917     0.85900
C1899       C  0.81490292  0.77180346  0.90821047     1.07500
H1900       H  0.73347799  0.82887969  0.52602123     0.39300
O1901       O  0.74806024  0.80036602  0.52845386    -1.08900
O1902       O  0.74658133  0.70177245  0.53795112    -0.65600
Ni1903     Ni  0.71783892  0.75090552  0.51079275     1.26300
O1904       O  0.75590114  0.84550502  0.95698668    -0.65800
O1905       O  0.68365754  0.75723269  0.55399436    -0.78100
C1906       C  0.66587676  0.71793867  0.96035081     0.85300
O1907       O  0.68640786  0.70496539  0.98848891    -0.65300
Ni1908     Ni  0.76632785  0.80022491  0.58152344     1.27400
Ni1909     Ni  0.78249853  0.79535341  0.98516878     1.26100
H1910       H  0.76579021  0.71818905  0.96821356     0.39900
N1911       N  0.84842660  0.85984212  0.70362798    -0.02700
C1912       C  0.81758845  0.86933831  0.72656501    -0.00100
C1913       C  0.81250963  0.83606347  0.75498282    -0.23000
C1914       C  0.84253601  0.80597811  0.75090111    -0.23200
C1915       C  0.86470993  0.82213561  0.72020639    -0.00200
H1916       H  0.79175185  0.83663385  0.77882549     0.13600
H1917       H  0.85005308  0.77907331  0.77138118     0.13600
N1918       N  0.89486531  0.86684867  0.55030616    -0.02700
C1919       C  0.92581523  0.87302585  0.52661402    -0.00100
C1920       C  0.92686001  0.83996666  0.49630960    -0.23000
C1921       C  0.89491765  0.81340500  0.50042559    -0.23200
C1922       C  0.87542924  0.83108938  0.53304804    -0.00200
H1923       H  0.94687186  0.83802640  0.97181996     0.13600
H1924       H  0.88494409  0.78739064  0.97940019     0.13600
C1925       C  0.89812253  0.89198770  0.65898543    -0.01000
C1926       C  0.85966515  0.88195546  0.66711567     0.08600
C1927       C  0.83364558  0.88716780  0.63594685    -0.01200
C1928       C  0.84762115  0.89883520  0.59852940    -0.01200
C1929       C  0.88575457  0.88799472  0.58864236     0.08800
C1930       C  0.91176981  0.88616050  0.62008724    -0.01400
Br1931     Br  0.96348584  0.86511468  0.61298348     0.00100
Br1932     Br  0.93123894  0.91452728  0.69989611     0.00000
Br1933     Br  0.81523600  0.92936184  0.56166228     0.00100
Br1934     Br  0.78050089  0.87126095  0.64052575     0.00100
C1935       C  0.60222707  0.64920927  0.83962770    -0.01000
C1936       C  0.64061093  0.65994260  0.83214795     0.08600
C1937       C  0.66614461  0.65423601  0.86359330    -0.01200
C1938       C  0.65207409  0.64126631  0.90060303    -0.01200
C1939       C  0.61402808  0.65162012  0.91036007     0.08800
C1940       C  0.58831724  0.65309121  0.87863083    -0.01400
Br1941     Br  0.53637946  0.67072768  0.88559205     0.00100
Br1942     Br  0.56954195  0.62887848  0.79753657     0.00000
Br1943     Br  0.68433751  0.61165182  0.93803241     0.00100
Br1944     Br  0.71802879  0.67352331  0.86078847     0.00100
C1945       C  0.59513339  0.89772835  0.90457470    -0.01000
C1946       C  0.57866678  0.90473070  0.86757699     0.08600
C1947       C  0.60443895  0.90452560  0.83476517    -0.01200
C1948       C  0.64494026  0.90289151  0.83974282    -0.01200
C1949       C  0.66160058  0.90429976  0.87740924     0.08800
C1950       C  0.63556924  0.89886410  0.90976997    -0.01400
Br1951     Br  0.65383086  0.89109141  0.96182452     0.00100
Br1952     Br  0.56180553  0.88032292  0.94711319     0.00000
Br1953     Br  0.67805151  0.89206556  0.79518043     0.00100
Br1954     Br  0.58479391  0.90546194  0.78245092     0.00100
C1955       C  0.86502138  0.64566289  0.58888333    -0.01000
C1956       C  0.83809911  0.64539843  0.62084217     0.08600
C1957       C  0.85332422  0.64989482  0.65912843    -0.01200
C1958       C  0.89340094  0.64713654  0.66575991    -0.01200
C1959       C  0.92018143  0.64517099  0.63378287     0.08800
C1960       C  0.90504645  0.64825749  0.59559883    -0.01400
Br1961     Br  0.93948770  0.65943804  0.55236912     0.00100
Br1962     Br  0.84876633  0.63972587  0.53505510     0.00000
Br1963     Br  0.91037675  0.64348585  0.71931018     0.00100
Br1964     Br  0.81908533  0.66321761  0.70262606     0.00100
C1965       C  0.90848908  0.66827369  0.87972348    -0.01000
C1966       C  0.87545660  0.69573457  0.87614409     0.08600
C1967       C  0.84095504  0.67136945  0.87323934    -0.01200
C1968       C  0.83979691  0.62435133  0.88493003    -0.01200
C1969       C  0.87248017  0.59587896  0.87902551     0.08800
C1970       C  0.90674391  0.61987042  0.87120445    -0.01400
Br1971     Br  0.94794310  0.59149406  0.84148011     0.00100
Br1972     Br  0.94684933  0.68929729  0.91511786     0.00000
Br1973     Br  0.79803735  0.60513944  0.91777124     0.00100
Br1974     Br  0.80883342  0.68767310  0.83071696     0.00100
C1975       C  0.62620572  0.92818354  0.58847472    -0.01000
C1976       C  0.62895878  0.95486439  0.62369896     0.08600
C1977       C  0.63012316  0.93116805  0.65954155    -0.01200
C1978       C  0.63142552  0.88166565  0.65968874    -0.01200
C1979       C  0.62661193  0.85502413  0.62476137     0.08800
C1980       C  0.62234399  0.87898926  0.58939799    -0.01400
Br1981     Br  0.60742238  0.84475494  0.54324828     0.00100
Br1982     Br  0.62945937  0.95907395  0.53901553     0.00000
Br1983     Br  0.64125189  0.85036945  0.70726482     0.00100
Br1984     Br  0.62677335  0.96662273  0.70827478     0.00100
loop_ 
_geom_bond_atom_site_label_1 
_geom_bond_atom_site_label_2 
_geom_bond_distance 
_geom_bond_site_symmetry_2 
_ccdc_geom_bond_type 
N1            C5   1.370       .  A
N1            C2   1.369       .  A
N1          C243   1.456       .  S
C2            C3   1.377       .  A
C2           C72   1.464       .  S
C3            C4   1.360       .  A
C3            H6   1.083       .  S
C4            C5   1.383       .  A
C4            H7   1.083       .  S
C5          C152   1.476       .  S
N8          C508   1.357       .  A
N8          C505   1.358       .  A
N8          C240   1.454       .  S
C9          N504   1.358       .  A
C9           C10   1.381       .  A
C9           C18   1.447       .  S
C10          C11   1.355       .  A
C10          H13   1.083       .  S
C11          C12   1.381       .  A
C11          H14   1.083       .  S
C12         N504   1.357       .  A
C12         C112   1.448       .  S
O15         Ni21   1.907       .  S
O15          C36   1.265       .  A
O16        Ni535   1.863       .  S
O16          C25   1.261       .  A
O17         Ni21   1.871       .  S
O17         Ni39   1.867   1_545  S
O17         Ni33   1.881       .  S
O17          H40   0.966       .  S
C18          O35   1.274       .  A
C18         O523   1.282   1_545  A
O19         Ni38   1.918       .  S
O19          C25   1.271       .  A
O20        Ni534   1.931   1_545  S
O20          C22   1.273       .  A
Ni21         O24   1.911       .  S
Ni21         O26   1.924       .  S
C22          C56   1.521       .  S
C22          O32   1.277       .  A
O23         Ni39   1.896       .  S
O23          C29   1.278   1_565  A
O24          C29   1.274       .  A
C25         C176   1.444       .  S
O26         C524   1.272   1_545  A
O27         Ni38   1.931       .  S
O27         C514   1.282       .  A
C28          C99   1.526       .  S
C28          O34   1.279       .  A
C28         O522   1.272       .  A
C29          C49   1.456       .  S
H30          O31   0.967       .  S
O31         Ni38   1.882       .  S
O31        Ni535   1.896       .  S
O31        Ni529   1.867       .  S
O32         Ni33   1.969       .  S
Ni33         O37   1.865       .  S
Ni33         O35   1.875       .  S
Ni33        O527   1.867   1_545  S
O34        Ni535   1.979       .  S
C36         C136   1.442       .  S
C36          O37   1.262       .  A
Ni38        O516   1.931       .  S
Ni39        O512   1.863       .  S
Ni39        O530   1.979       .  S
Ni39        O527   1.896       .  S
N41          C45   1.370       .  A
N41          C42   1.369       .  A
N41         C230   1.461       .  S
C42          C43   1.378       .  A
C42          C83   1.467       .  S
C43          C44   1.364       .  A
C43          H46   1.083       .  S
C44          C45   1.382       .  A
C44          H47   1.083       .  S
C45         C163   1.472       .  S
N48          C52   1.368       .  A
N48          C49   1.367       .  A
N48         C233   1.465       .  S
C49         C546   1.378   1_545  A
C50          C51   1.350       .  A
C50         C545   1.378       .  A
C50          H53   1.083       .  S
C51         C548   1.383       .  A
C51          H54   1.083       .  S
C52         C547   1.383   1_545  A
C52         C123   1.463       .  S
N55          C59   1.401       .  A
N55          C56   1.391       .  A
N55         C220   1.487       .  S
C56          C57   1.381       .  A
C57          C58   1.355       .  A
C57          H60   1.083       .  S
C58          C59   1.379       .  A
C58          H61   1.083       .  S
C59         C156   1.526       .  S
N62          C66   1.380       .  A
N62          C63   1.391       .  A
N62         C223   1.484       .  S
C63        C1056   1.377       .  A
C63          C76   1.497       .  S
C64          C65   1.355       .  A
C64        C1055   1.377   1_455  A
C64          H67   1.083       .  S
C65        C1058   1.382   1_455  A
C65          H68   1.083       .  S
C66        C1057   1.382       .  A
C66         C116   1.498       .  S
O69         Ni75   1.939       .  S
O69          C90   1.274       .  A
O70         Ni93   1.865       .  S
O70          C79   1.264       .  A
O71         Ni93   1.871       .  S
O71       Ni1067   1.940       .  S
O71       Ni1079   1.892       .  S
O71          H94   0.966       .  S
C72          O89   1.256       .  A
C72          O81   1.276       .  A
O73         Ni92   1.927       .  S
O73          C79   1.269       .  A
O74         Ni92   1.893       .  S
O74          C76   1.258       .  A
Ni75         O80   1.896       .  S
Ni75       O1070   1.965   1_455  S
Ni75       O1063   1.940       .  S
C76        O1078   1.296       .  A
O77         Ni93   1.884       .  S
O77          C83   1.253       .  A
O78       Ni1067   1.965       .  S
O78          C83   1.279       .  A
C79         C179   1.449       .  S
O80          C82   1.260       .  A
O81       Ni1084   1.955   1_455  S
C82         C103   1.499       .  S
C82        O1080   1.298   1_455  A
H84          O85   0.966       .  S
O85         Ni87   1.876   1_655  S
O85       Ni1085   1.895       .  S
O85       Ni1084   1.942       .  S
O86         Ni87   1.987       .  S
O86        C1068   1.296   1_455  A
Ni87         O91   1.862       .  S
Ni87         O89   1.890       .  S
Ni87       O1063   1.892       .  S
O88         Ni93   1.992       .  S
O88        C1074   1.298       .  A
C90         C139   1.454       .  S
C90          O91   1.264       .  A
Ni92       O1073   1.955       .  S
Ni92       O1077   1.942       .  S
Ni93       O1077   1.895       .  S
N95          C99   1.396       .  A
N95          C96   1.402       .  A
N95         C213   1.498       .  S
C96          C97   1.376       .  A
C96         C162   1.522       .  S
C97          C98   1.349       .  A
C97         H100   1.083       .  S
C98          C99   1.383       .  A
C98         H101   1.083       .  S
N102        C106   1.389       .  A
N102        C103   1.394       .  A
N102        C210   1.490       .  S
C103       C1096   1.375   1_455  A
C104        C105   1.349       .  A
C104       C1095   1.375       .  A
C104        H107   1.083       .  S
C105       C1098   1.383       .  A
C105        H108   1.081       .  S
C106       C1097   1.383   1_455  A
C106        C122   1.511       .  S
O109       Ni115   1.921   1_455  S
O109        C130   1.265       .  A
O110       Ni877   1.883       .  S
O110        C119   1.267   1_556  A
O111       Ni133   1.877   1_545  S
O111      Ni1107   1.881       .  S
O111      Ni1367   1.870       .  S
O111        H134   0.966       .  S
C112        O129   1.271       .  A
C112        O617   1.283   1_545  A
O113       Ni132   1.933       .  S
O113        C119   1.270       .  A
O114       Ni628   1.914   1_545  S
O114        C116   1.267       .  A
Ni115       O120   1.918   1_655  S
Ni115      O1110   1.919       .  S
Ni115      O1103   1.881       .  S
C116       O1118   1.279       .  A
O117       Ni133   1.895       .  S
O117        C123   1.277   1_565  A
O118      Ni1107   1.919       .  S
O118        C123   1.274       .  A
C119        C183   1.460       .  S
O120        C618   1.272   1_545  A
O121      Ni1124   1.943       .  S
O121        C608   1.283       .  A
C122        O616   1.272       .  A
C122       O1120   1.280       .  A
H124        O125   0.967       .  S
O125      Ni1869   1.886   1_454  S
O125       Ni623   1.880       .  S
O125      Ni1124   1.894       .  S
O126       Ni127   1.965   1_655  S
O126       C1108   1.279       .  A
Ni127       O129   1.862       .  S
Ni127       O379   1.887       .  S
Ni127      O1351   1.870   1_454  S
Ni127       O621   1.880   1_545  S
O128       Ni629   1.977       .  S
O128       C1114   1.280       .  A
C130        C143   1.459       .  S
C130        O131   1.268       .  A
O131       Ni375   1.887       .  S
Ni132       O610   1.914       .  S
Ni132      O1113   1.943       .  S
Ni132      O1117   1.894       .  S
Ni133       O854   1.883       .  S
Ni133       O624   1.977       .  S
Ni133      O1861   1.886       .  S
N135        C139   1.358       .  A
N135        C136   1.355       .  A
N135        C200   1.457       .  S
C136        C137   1.377       .  A
C137        C138   1.354       .  A
C137        H140   1.083       .  S
C138        C139   1.381       .  A
C138        H141   1.074       .  S
N142        C146   1.362       .  A
N142        C143   1.362       .  A
N142        C203   1.457       .  S
C143        C144   1.380       .  A
C144        C145   1.359       .  A
C144        H395   1.083       .  S
C145        C146   1.376       .  A
C145        H396   1.076       .  S
C146        C170   1.462       .  S
H147        C392   1.083       .  S
H148        C393   1.076   1_554  S
O149       Ni155   1.952       .  S
O149        C170   1.277       .  A
O150       Ni421   1.867   1_554  S
O150        C159   1.267       .  A
O151       Ni155   1.922       .  S
O151       Ni173   1.866       .  S
O151       Ni415   1.893       .  S
O151        H174   0.966       .  S
C152        O169   1.272       .  A
C152        O161   1.284       .  A
O153       Ni172   1.948       .  S
O153        C159   1.276       .  A
O154       Ni172   1.940       .  S
O154        C156   1.269       .  A
Ni155       O158   1.958       .  S
Ni155       O160   1.929       .  S
C156        O166   1.294       .  A
O157       Ni173   1.884       .  S
O157        C163   1.267       .  A
O158        C163   1.284       .  A
C159        C186   1.458       .  S
O160        C162   1.266       .  A
O161       Ni172   1.964       .  S
C162        O168   1.295       .  A
H164        O165   0.966       .  S
O165       Ni167   1.864       .  S
O165       Ni172   1.924       .  S
O165       Ni421   1.895   1_554  S
O166       Ni167   1.980       .  S
Ni167       O169   1.890       .  S
Ni167       O419   1.873   1_554  S
Ni167       O399   1.893   1_554  S
O168       Ni173   1.981       .  S
C170        O171   1.268       .  A
O171       Ni415   1.873       .  S
Ni173       O398   1.867       .  S
Ni173       O413   1.895       .  S
N175        C179   1.356       .  A
N175        C176   1.350       .  A
N175        C190   1.456       .  S
C176        C177   1.381       .  A
C177        C178   1.362       .  A
C177        H180   1.083       .  S
C178        C179   1.383       .  A
C178        H181   1.083       .  S
N182        C186   1.358       .  A
N182        C183   1.359       .  A
N182        C193   1.455       .  S
C183        C184   1.382   1_554  A
C184        C185   1.365   1_556  A
C184        H435   1.083       .  S
C185        C186   1.380       .  A
C185        H436   1.082   1_554  S
H187        C432   1.083       .  S
H188        C433   1.082       .  S
C189        C190   1.408       .  A
C189        C194   1.407       .  A
C189       Br196   1.928       .  S
C190        C191   1.420       .  A
C191        C192   1.405       .  A
C191       Br198   1.930       .  S
C192        C193   1.409       .  A
C192       Br197   1.927       .  S
C193        C194   1.419       .  A
C194       Br195   1.923       .  S
C199        C200   1.406       .  A
C199        C204   1.409       .  A
C199       Br206   1.929       .  S
C200        C201   1.418       .  A
C201        C202   1.404       .  A
C201       Br208   1.909       .  S
C202        C203   1.402       .  A
C202       Br207   1.925       .  S
C203        C204   1.419       .  A
C204       Br205   1.903       .  S
C209        C210   1.411       .  A
C209        C214   1.436       .  A
C209       Br216   1.924       .  S
C210        C211   1.427       .  A
C211        C212   1.437       .  A
C211       Br218   1.918       .  S
C212        C213   1.416       .  A
C212       Br217   1.916       .  S
C213        C214   1.433       .  A
C214       Br215   1.909       .  S
C219        C220   1.431       .  A
C219        C224   1.431       .  A
C219       Br226   1.930       .  S
C220        C221   1.418       .  A
C221        C222   1.432       .  A
C221       Br228   1.924       .  S
C222        C223   1.428       .  A
C222       Br227   1.930       .  S
C223        C224   1.415       .  A
C224       Br225   1.924       .  S
C229        C230   1.407       .  A
C229        C234   1.408       .  A
C229       Br236   1.910       .  S
C230        C231   1.404       .  A
C231        C232   1.410       .  A
C231       Br238   1.913       .  S
C232        C233   1.415       .  A
C232       Br237   1.921       .  S
C233        C234   1.413       .  A
C234       Br235   1.920       .  S
C239        C240   1.410       .  A
C239        C244   1.413       .  A
C239       Br246   1.919       .  S
C240        C241   1.409       .  A
C241        C242   1.414       .  A
C241       Br248   1.924       .  S
C242        C243   1.408       .  A
C242       Br247   1.902       .  S
C243        C244   1.407       .  A
C244       Br245   1.911       .  S
N249        C253   1.370       .  A
N249        C250   1.369       .  A
N249        C491   1.456       .  S
C250        C251   1.377       .  A
C250        C320   1.464       .  S
C251        C252   1.360       .  A
C251        H254   1.083       .  S
C252        C253   1.383       .  A
C252        H255   1.083       .  S
C253        C400   1.476       .  S
N256        C756   1.357       .  A
N256        C753   1.358       .  A
N256        C488   1.454       .  S
C257        N752   1.358       .  A
C257        C258   1.381       .  A
C257        C266   1.447       .  S
C258        C259   1.355       .  A
C258        H261   1.083       .  S
C259        C260   1.381       .  A
C259        H262   1.083       .  S
C260        N752   1.357       .  A
C260        C360   1.448       .  S
O263       Ni269   1.907       .  S
O263        C284   1.265       .  A
O264       Ni783   1.863       .  S
O264        C273   1.261       .  A
O265       Ni269   1.871       .  S
O265       Ni287   1.867   1_545  S
O265       Ni281   1.881       .  S
O265        H288   0.966       .  S
C266        O283   1.274       .  A
C266        O771   1.282   1_545  A
O267       Ni286   1.918       .  S
O267        C273   1.271       .  A
O268       Ni782   1.931   1_545  S
O268        C270   1.273       .  A
Ni269       O272   1.911       .  S
Ni269       O274   1.924       .  S
C270        C304   1.521       .  S
C270        O280   1.277       .  A
O271       Ni287   1.896       .  S
O271        C277   1.278   1_565  A
O272        C277   1.274       .  A
C273        C424   1.444       .  S
O274        C772   1.272   1_545  A
O275       Ni286   1.931       .  S
O275        C762   1.282       .  A
C276        C347   1.526       .  S
C276        O770   1.272       .  A
C276        O282   1.279       .  A
C277        C297   1.456       .  S
H278        O279   0.967       .  S
O279       Ni783   1.896       .  S
O279       Ni777   1.867       .  S
O279       Ni286   1.882       .  S
O280       Ni281   1.969       .  S
Ni281       O285   1.865       .  S
Ni281       O283   1.875       .  S
Ni281       O775   1.867   1_545  S
O282       Ni783   1.979       .  S
C284        C384   1.442       .  S
C284        O285   1.262       .  A
Ni286       O764   1.931       .  S
Ni287       O760   1.863       .  S
Ni287       O778   1.979       .  S
Ni287       O775   1.896       .  S
N289        C293   1.370       .  A
N289        C290   1.369       .  A
N289        C478   1.461       .  S
C290        C291   1.378       .  A
C290        C331   1.467       .  S
C291        C292   1.364       .  A
C291        H294   1.083       .  S
C292        C293   1.382       .  A
C292        H295   1.083       .  S
C293        C411   1.472       .  S
N296        C300   1.368       .  A
N296        C297   1.367       .  A
N296        C481   1.465       .  S
C297        C794   1.378   1_545  A
C298        C793   1.378       .  A
C298        C299   1.350       .  A
C298        H301   1.083       .  S
C299        C796   1.383       .  A
C299        H302   1.083       .  S
C300        C795   1.383   1_545  A
C300        C371   1.463       .  S
N303        C307   1.401       .  A
N303        C304   1.391       .  A
N303        C468   1.487       .  S
C304        C305   1.381       .  A
C305        C306   1.355       .  A
C305        H308   1.083       .  S
C306        C307   1.379       .  A
C306        H309   1.083       .  S
C307        C404   1.526       .  S
N310        C314   1.380       .  A
N310        C311   1.391       .  A
N310        C471   1.484       .  S
C311       C1304   1.377       .  A
C311        C324   1.497       .  S
C312       C1303   1.377   1_455  A
C312        C313   1.355       .  A
C312        H315   1.083       .  S
C313       C1306   1.382   1_455  A
C313        H316   1.083       .  S
C314       C1305   1.382       .  A
C314        C364   1.498       .  S
O317       Ni323   1.939       .  S
O317        C338   1.274       .  A
O318       Ni341   1.865       .  S
O318        C327   1.264       .  A
O319      Ni1315   1.940       .  S
O319       Ni341   1.871       .  S
O319      Ni1327   1.892       .  S
O319        H342   0.966       .  S
C320        O337   1.256       .  A
C320        O329   1.276       .  A
O321       Ni340   1.927       .  S
O321        C327   1.269       .  A
O322       Ni340   1.893       .  S
O322        C324   1.258       .  A
Ni323      O1318   1.965   1_455  S
Ni323       O328   1.896       .  S
Ni323      O1311   1.940       .  S
C324       O1326   1.296       .  A
O325       Ni341   1.884       .  S
O325        C331   1.253       .  A
O326      Ni1315   1.965       .  S
O326        C331   1.279       .  A
C327        C427   1.449       .  S
O328        C330   1.260       .  A
O329      Ni1332   1.955   1_455  S
C330        C351   1.499       .  S
C330       O1328   1.298   1_455  A
H332        O333   0.966       .  S
O333      Ni1333   1.895       .  S
O333       Ni335   1.876   1_655  S
O333      Ni1332   1.942       .  S
O334       Ni335   1.987       .  S
O334       C1316   1.296   1_455  A
Ni335       O339   1.862       .  S
Ni335       O337   1.890       .  S
Ni335      O1311   1.892       .  S
O336       Ni341   1.992       .  S
O336       C1322   1.298       .  A
C338        C387   1.454       .  S
C338        O339   1.264       .  A
Ni340      O1321   1.955       .  S
Ni340      O1325   1.942       .  S
Ni341      O1325   1.895       .  S
N343        C347   1.396       .  A
N343        C344   1.402       .  A
N343        C461   1.498       .  S
C344        C345   1.376       .  A
C344        C410   1.522       .  S
C345        C346   1.349       .  A
C345        H348   1.083       .  S
C346        C347   1.383       .  A
C346        H349   1.083       .  S
N350        C354   1.389       .  A
N350        C351   1.394       .  A
N350        C458   1.490       .  S
C351       C1344   1.375   1_455  A
C352       C1343   1.375       .  A
C352        C353   1.349       .  A
C352        H355   1.083       .  S
C353       C1346   1.383       .  A
C353        H356   1.081       .  S
C354       C1345   1.383   1_455  A
C354        C370   1.511       .  S
O357       Ni363   1.921   1_455  S
O357        C378   1.265       .  A
O358       Ni629   1.883       .  S
O358        C367   1.267       .  A
O359      Ni1355   1.881       .  S
O359       Ni381   1.877   1_545  S
O359      Ni1119   1.870   1_556  S
O359        H382   0.966       .  S
C360        O377   1.271       .  A
C360        O865   1.283   1_545  A
O361       Ni380   1.933       .  S
O361        C367   1.270       .  A
O362       Ni876   1.914   1_545  S
O362        C364   1.267       .  A
Ni363      O1358   1.919       .  S
Ni363       O368   1.918   1_655  S
Ni363      O1351   1.881       .  S
C364       O1366   1.279       .  A
O365       Ni381   1.894       .  S
O365        C371   1.277   1_565  A
O366      Ni1355   1.919       .  S
O366        C371   1.274       .  A
C367        C431   1.460       .  S
O368        C866   1.272   1_545  A
O369      Ni1372   1.943       .  S
O369        C856   1.283       .  A
C370        O864   1.272       .  A
C370       O1368   1.280       .  A
H372        O373   0.967       .  S
O373      Ni1621   1.886   1_455  S
O373       Ni871   1.880       .  S
O373      Ni1372   1.894       .  S
O374       Ni375   1.965   1_655  S
O374       C1356   1.279       .  A
Ni375       O377   1.862       .  S
Ni375      O1103   1.870   1_455  S
Ni375       O869   1.880   1_545  S
O376       Ni877   1.977       .  S
O376       C1362   1.280       .  A
C378        C391   1.459       .  S
C378        O379   1.268   1_556  A
Ni380       O858   1.914       .  S
Ni380      O1361   1.943       .  S
Ni380      O1365   1.894       .  S
Ni381       O606   1.883       .  S
Ni381       O872   1.977       .  S
Ni381      O1613   1.886   1_556  S
N383        C387   1.358       .  A
N383        C384   1.355       .  A
N383        C448   1.457       .  S
C384        C385   1.377       .  A
C385        C386   1.354       .  A
C385        H388   1.083       .  S
C386        C387   1.381       .  A
C386        H389   1.074       .  S
N390        C394   1.362       .  A
N390        C391   1.362       .  A
N390        C451   1.457       .  S
C391        C392   1.380   1_556  A
C392        C393   1.359   1_554  A
C393        C394   1.376       .  A
C394        C418   1.462       .  S
O397       Ni403   1.952       .  S
O397        C418   1.277       .  A
O398        C407   1.267       .  A
O399       Ni403   1.922       .  S
O399       Ni421   1.866       .  S
O399        H422   0.966       .  S
C400        O417   1.272       .  A
C400        O409   1.284       .  A
O401       Ni420   1.948       .  S
O401        C407   1.276       .  A
O402       Ni420   1.940       .  S
O402        C404   1.269       .  A
Ni403       O406   1.958       .  S
Ni403       O408   1.929       .  S
C404        O414   1.294       .  A
O405       Ni421   1.884       .  S
O405        C411   1.267       .  A
O406        C411   1.284       .  A
C407        C434   1.458       .  S
O408        C410   1.266       .  A
O409       Ni420   1.964       .  S
C410        O416   1.295       .  A
H412        O413   0.966       .  S
O413       Ni415   1.864       .  S
O413       Ni420   1.924       .  S
O414       Ni415   1.980       .  S
Ni415       O417   1.890       .  S
O416       Ni421   1.981       .  S
C418        O419   1.268       .  A
N423        C427   1.356       .  A
N423        C424   1.350       .  A
N423        C438   1.456       .  S
C424        C425   1.381       .  A
C425        C426   1.362       .  A
C425        H428   1.083       .  S
C426        C427   1.383       .  A
C426        H429   1.083       .  S
N430        C434   1.358       .  A
N430        C431   1.359       .  A
N430        C441   1.455       .  S
C431        C432   1.382       .  A
C432        C433   1.365       .  A
C433        C434   1.380       .  A
C437        C438   1.408       .  A
C437        C442   1.407       .  A
C437       Br444   1.928       .  S
C438        C439   1.420       .  A
C439        C440   1.405       .  A
C439       Br446   1.930       .  S
C440        C441   1.409       .  A
C440       Br445   1.927       .  S
C441        C442   1.419       .  A
C442       Br443   1.923       .  S
C447        C448   1.406       .  A
C447        C452   1.409       .  A
C447       Br454   1.929       .  S
C448        C449   1.418       .  A
C449        C450   1.404       .  A
C449       Br456   1.909       .  S
C450        C451   1.402       .  A
C450       Br455   1.925       .  S
C451        C452   1.419       .  A
C452       Br453   1.903       .  S
C457        C458   1.411       .  A
C457        C462   1.436       .  A
C457       Br464   1.924       .  S
C458        C459   1.427       .  A
C459        C460   1.437       .  A
C459       Br466   1.918       .  S
C460        C461   1.416       .  A
C460       Br465   1.916       .  S
C461        C462   1.433       .  A
C462       Br463   1.909       .  S
C467        C468   1.431       .  A
C467        C472   1.431       .  A
C467       Br474   1.930       .  S
C468        C469   1.418       .  A
C469        C470   1.432       .  A
C469       Br476   1.924       .  S
C470        C471   1.428       .  A
C470       Br475   1.930       .  S
C471        C472   1.415       .  A
C472       Br473   1.924       .  S
C477        C478   1.407       .  A
C477        C482   1.408       .  A
C477       Br484   1.910       .  S
C478        C479   1.404       .  A
C479        C480   1.410       .  A
C479       Br486   1.913       .  S
C480        C481   1.415       .  A
C480       Br485   1.921       .  S
C481        C482   1.413       .  A
C482       Br483   1.920       .  S
C487        C488   1.410       .  A
C487        C492   1.413       .  A
C487       Br494   1.919       .  S
C488        C489   1.409       .  A
C489        C490   1.414       .  A
C489       Br496   1.924       .  S
C490        C491   1.408       .  A
C490       Br495   1.902       .  S
C491        C492   1.407       .  A
C492       Br493   1.911       .  S
N497        C501   1.370       .  A
N497        C498   1.369       .  A
N497        C739   1.456       .  S
C498        C499   1.377       .  A
C498        C568   1.464       .  S
C499        C500   1.360       .  A
C499        H502   1.083       .  S
C500        C501   1.383       .  A
C500        H503   1.083       .  S
C501        C648   1.476       .  S
N504        C736   1.454   1_545  S
C505        C506   1.381       .  A
C505        C514   1.447       .  S
C506        C507   1.355       .  A
C506        H509   1.083       .  S
C507        C508   1.381       .  A
C507        H510   1.083       .  S
C508        C608   1.448       .  S
O511       Ni517   1.907       .  S
O511        C532   1.265       .  A
O512        C521   1.261       .  A
O513       Ni517   1.871       .  S
O513       Ni535   1.867       .  S
O513       Ni529   1.881       .  S
O513        H536   0.966       .  S
C514        O531   1.274       .  A
O515       Ni534   1.918       .  S
O515        C521   1.271       .  A
O516        C518   1.273       .  A
Ni517       O520   1.911       .  S
Ni517       O522   1.924       .  S
C518        C552   1.521       .  S
C518        O528   1.277       .  A
O519       Ni535   1.896       .  S
O519        C525   1.278       .  A
O520        C525   1.274       .  A
C521        C672   1.444       .  S
O523       Ni534   1.931       .  S
C524        C595   1.526       .  S
C524        O530   1.279       .  A
C525        C545   1.456       .  S
H526        O527   0.967       .  S
O527       Ni534   1.882       .  S
O528       Ni529   1.969       .  S
Ni529       O533   1.865       .  S
Ni529       O531   1.875       .  S
C532        C632   1.442       .  S
C532        O533   1.262       .  A
N537        C541   1.370       .  A
N537        C538   1.369       .  A
N537        C726   1.461       .  S
C538        C539   1.378       .  A
C538        C579   1.467       .  S
C539        C540   1.364       .  A
C539        H542   1.083       .  S
C540        C541   1.382       .  A
C540        H543   1.083       .  S
C541        C659   1.472       .  S
N544        C548   1.368       .  A
N544        C545   1.367       .  A
N544        C729   1.465       .  S
C546        C547   1.350       .  A
C546        H549   1.083       .  S
C547        H550   1.083       .  S
C548        C619   1.463       .  S
N551        C555   1.401       .  A
N551        C552   1.391       .  A
N551        C716   1.487       .  S
C552        C553   1.381       .  A
C553        C554   1.355       .  A
C553        H556   1.083       .  S
C554        C555   1.379       .  A
C554        H557   1.083       .  S
C555        C652   1.526       .  S
N558        C562   1.380       .  A
N558        C559   1.391       .  A
N558        C719   1.484       .  S
C559       C1552   1.377       .  A
C559        C572   1.497       .  S
C560       C1551   1.377   1_455  A
C560        C561   1.355       .  A
C560        H563   1.083       .  S
C561       C1554   1.382   1_455  A
C561        H564   1.083       .  S
C562       C1553   1.382       .  A
C562        C612   1.498       .  S
O565       Ni571   1.939       .  S
O565        C586   1.274       .  A
O566       Ni589   1.865       .  S
O566        C575   1.264       .  A
O567      Ni1563   1.940       .  S
O567       Ni589   1.871       .  S
O567      Ni1575   1.892       .  S
O567        H590   0.966       .  S
C568        O585   1.256       .  A
C568        O577   1.276       .  A
O569       Ni588   1.927       .  S
O569        C575   1.269       .  A
O570       Ni588   1.893       .  S
O570        C572   1.258       .  A
Ni571      O1566   1.965   1_455  S
Ni571       O576   1.896       .  S
Ni571      O1559   1.940       .  S
C572       O1574   1.296       .  A
O573       Ni589   1.884       .  S
O573        C579   1.253       .  A
O574      Ni1563   1.965       .  S
O574        C579   1.279       .  A
C575        C675   1.449       .  S
O576        C578   1.260       .  A
O577      Ni1580   1.955   1_455  S
C578        C599   1.499       .  S
C578       O1576   1.298   1_455  A
H580        O581   0.966       .  S
O581      Ni1581   1.895       .  S
O581       Ni583   1.876   1_655  S
O581      Ni1580   1.942       .  S
O582       Ni583   1.987       .  S
O582       C1564   1.296   1_455  A
Ni583       O587   1.862       .  S
Ni583       O585   1.890       .  S
Ni583      O1559   1.892       .  S
O584       Ni589   1.992       .  S
O584       C1570   1.298       .  A
C586        C635   1.454       .  S
C586        O587   1.264       .  A
Ni588      O1569   1.955       .  S
Ni588      O1573   1.942       .  S
Ni589      O1573   1.895       .  S
N591        C595   1.396       .  A
N591        C592   1.402       .  A
N591        C709   1.498       .  S
C592        C593   1.376       .  A
C592        C658   1.522       .  S
C593        C594   1.349       .  A
C593        H596   1.083       .  S
C594        C595   1.383       .  A
C594        H597   1.083   1_565  S
N598        C602   1.389       .  A
N598        C599   1.394       .  A
N598        C706   1.490       .  S
C599       C1592   1.375   1_455  A
C600       C1591   1.375       .  A
C600        C601   1.349       .  A
C600        H603   1.083       .  S
C601       C1594   1.383       .  A
C601        H604   1.081       .  S
C602       C1593   1.383   1_455  A
C602        C618   1.511       .  S
O605       Ni611   1.921   1_455  S
O605        C626   1.265       .  A
O606        C615   1.267   1_556  A
O607      Ni1603   1.881       .  S
O607       Ni629   1.877       .  S
O607      Ni1863   1.870       .  S
O607        H630   0.966       .  S
C608        O625   1.271       .  A
O609       Ni628   1.933       .  S
O609        C615   1.270       .  A
O610        C612   1.267       .  A
Ni611      O1606   1.919       .  S
Ni611       O616   1.918   1_655  S
Ni611      O1599   1.881       .  S
C612       O1614   1.279       .  A
O613       Ni629   1.895       .  S
O613        C619   1.277       .  A
O614      Ni1603   1.919       .  S
O614        C619   1.274       .  A
C615        C679   1.460       .  S
O617      Ni1620   1.943       .  S
C618       O1616   1.280       .  A
H620        O621   0.967       .  S
O621      Ni1373   1.886   1_454  S
O621      Ni1620   1.894       .  S
O622       Ni623   1.965   1_655  S
O622       C1604   1.279       .  A
Ni623       O875   1.887       .  S
Ni623       O625   1.862       .  S
Ni623      O1847   1.870   1_454  S
O624       C1610   1.280       .  A
C626        C639   1.459       .  S
C626        O627   1.268       .  A
O627       Ni871   1.887       .  S
Ni628      O1609   1.943       .  S
Ni628      O1613   1.894       .  S
Ni629      O1365   1.886       .  S
N631        C635   1.358       .  A
N631        C632   1.355       .  A
N631        C696   1.457       .  S
C632        C633   1.377       .  A
C633        C634   1.354       .  A
C633        H636   1.083       .  S
C634        C635   1.381       .  A
C634        H637   1.074       .  S
N638        C642   1.362       .  A
N638        C639   1.362       .  A
N638        C699   1.457       .  S
C639        C640   1.380       .  A
C640        C641   1.359       .  A
C640        H891   1.083       .  S
C641        C642   1.376       .  A
C641        H892   1.076       .  S
C642        C666   1.462       .  S
H643        C888   1.083       .  S
H644        C889   1.076   1_554  S
O645       Ni651   1.952       .  S
O645        C666   1.277       .  A
O646       Ni917   1.867   1_554  S
O646        C655   1.267       .  A
O647       Ni651   1.922       .  S
O647       Ni669   1.866       .  S
O647       Ni911   1.893       .  S
O647        H670   0.966       .  S
C648        O665   1.272       .  A
C648        O657   1.284       .  A
O649       Ni668   1.948       .  S
O649        C655   1.276       .  A
O650       Ni668   1.940       .  S
O650        C652   1.269       .  A
Ni651       O654   1.958       .  S
Ni651       O656   1.929       .  S
C652        O662   1.294       .  A
O653       Ni669   1.884       .  S
O653        C659   1.267       .  A
O654        C659   1.284       .  A
C655        C682   1.458       .  S
O656        C658   1.266       .  A
O657       Ni668   1.964       .  S
C658        O664   1.295       .  A
H660        O661   0.966       .  S
O661       Ni917   1.895   1_554  S
O661       Ni663   1.864       .  S
O661       Ni668   1.924       .  S
O662       Ni663   1.980       .  S
Ni663       O915   1.873   1_554  S
Ni663       O665   1.890       .  S
Ni663       O895   1.893   1_554  S
O664       Ni669   1.981       .  S
C666        O667   1.268       .  A
O667       Ni911   1.873       .  S
Ni669       O894   1.867       .  S
Ni669       O909   1.895       .  S
N671        C675   1.356       .  A
N671        C672   1.350       .  A
N671        C686   1.456       .  S
C672        C673   1.381       .  A
C673        C674   1.362       .  A
C673        H676   1.083       .  S
C674        C675   1.383       .  A
C674        H677   1.083       .  S
N678        C682   1.358       .  A
N678        C679   1.359       .  A
N678        C689   1.455       .  S
C679        C680   1.382   1_554  A
C680        C681   1.365   1_556  A
C680        H931   1.083       .  S
C681        C682   1.380       .  A
C681        H932   1.082   1_554  S
H683        C928   1.083       .  S
H684        C929   1.082       .  S
C685        C686   1.408       .  A
C685        C690   1.407       .  A
C685       Br692   1.928       .  S
C686        C687   1.420       .  A
C687        C688   1.405       .  A
C687       Br694   1.930       .  S
C688        C689   1.409       .  A
C688       Br693   1.927       .  S
C689        C690   1.419       .  A
C690       Br691   1.923       .  S
C695        C696   1.406       .  A
C695        C700   1.409       .  A
C695       Br702   1.929       .  S
C696        C697   1.418       .  A
C697        C698   1.404       .  A
C697       Br704   1.909       .  S
C698        C699   1.402       .  A
C698       Br703   1.925       .  S
C699        C700   1.419       .  A
C700       Br701   1.903       .  S
C705        C706   1.411       .  A
C705        C710   1.436       .  A
C705       Br712   1.924       .  S
C706        C707   1.427       .  A
C707        C708   1.437       .  A
C707       Br714   1.918       .  S
C708        C709   1.416       .  A
C708       Br713   1.916       .  S
C709        C710   1.433       .  A
C710       Br711   1.909       .  S
C715        C716   1.431       .  A
C715        C720   1.431       .  A
C715       Br722   1.930       .  S
C716        C717   1.418       .  A
C717        C718   1.432       .  A
C717       Br724   1.924       .  S
C718        C719   1.428       .  A
C718       Br723   1.930       .  S
C719        C720   1.415       .  A
C720       Br721   1.924       .  S
C725        C726   1.407       .  A
C725        C730   1.408       .  A
C725       Br732   1.910       .  S
C726        C727   1.404       .  A
C727        C728   1.410       .  A
C727       Br734   1.913       .  S
C728        C729   1.415       .  A
C728       Br733   1.921       .  S
C729        C730   1.413       .  A
C730       Br731   1.920       .  S
C735        C736   1.410       .  A
C735        C740   1.413       .  A
C735       Br742   1.919       .  S
C736        C737   1.409       .  A
C737        C738   1.414       .  A
C737       Br744   1.924       .  S
C738        C739   1.408       .  A
C738       Br743   1.902       .  S
C739        C740   1.407       .  A
C740       Br741   1.911       .  S
N745        C749   1.370       .  A
N745        C746   1.369       .  A
N745        C987   1.456       .  S
C746        C747   1.377       .  A
C746        C816   1.464       .  S
C747        C748   1.360       .  A
C747        H750   1.083       .  S
C748        C749   1.383       .  A
C748        H751   1.083       .  S
C749        C896   1.476       .  S
N752        C984   1.454   1_545  S
C753        C754   1.381       .  A
C753        C762   1.447       .  S
C754        C755   1.355       .  A
C754        H757   1.083       .  S
C755        C756   1.381       .  A
C755        H758   1.083       .  S
C756        C856   1.448       .  S
O759       Ni765   1.907       .  S
O759        C780   1.265       .  A
O760        C769   1.261       .  A
O761       Ni765   1.871       .  S
O761       Ni783   1.867       .  S
O761       Ni777   1.881       .  S
O761        H784   0.966       .  S
C762        O779   1.274       .  A
O763       Ni782   1.918       .  S
O763        C769   1.271       .  A
O764        C766   1.273       .  A
Ni765       O768   1.911       .  S
Ni765       O770   1.924       .  S
C766        C800   1.521       .  S
C766        O776   1.277       .  A
O767       Ni783   1.896       .  S
O767        C773   1.278       .  A
O768        C773   1.274       .  A
C769        C920   1.444       .  S
O771       Ni782   1.931       .  S
C772        C843   1.526       .  S
C772        O778   1.279       .  A
C773        C793   1.456       .  S
H774        O775   0.967       .  S
O775       Ni782   1.882       .  S
O776       Ni777   1.969       .  S
Ni777       O781   1.865       .  S
Ni777       O779   1.875       .  S
C780        C880   1.442       .  S
C780        O781   1.262       .  A
N785        C789   1.370       .  A
N785        C786   1.369       .  A
N785        C974   1.461       .  S
C786        C787   1.378       .  A
C786        C827   1.467       .  S
C787        C788   1.364       .  A
C787        H790   1.083       .  S
C788        C789   1.382       .  A
C788        H791   1.083       .  S
C789        C907   1.472       .  S
N792        C796   1.368       .  A
N792        C793   1.367       .  A
N792        C977   1.465       .  S
C794        C795   1.350       .  A
C794        H797   1.083       .  S
C795        H798   1.083       .  S
C796        C867   1.463       .  S
N799        C803   1.401       .  A
N799        C800   1.391       .  A
N799        C964   1.487       .  S
C800        C801   1.381       .  A
C801        C802   1.355       .  A
C801        H804   1.083       .  S
C802        C803   1.379       .  A
C802        H805   1.083       .  S
C803        C900   1.526       .  S
N806        C810   1.380       .  A
N806        C807   1.391       .  A
N806        C967   1.484       .  S
C807       C1800   1.377       .  A
C807        C820   1.497       .  S
C808       C1799   1.377   1_455  A
C808        C809   1.355       .  A
C808        H811   1.083       .  S
C809       C1802   1.382   1_455  A
C809        H812   1.083       .  S
C810       C1801   1.382       .  A
C810        C860   1.498       .  S
O813       Ni819   1.939       .  S
O813        C834   1.274       .  A
O814       Ni837   1.865       .  S
O814        C823   1.264       .  A
O815      Ni1811   1.940       .  S
O815       Ni837   1.871       .  S
O815      Ni1823   1.892       .  S
O815        H838   0.966       .  S
C816        O833   1.256       .  A
C816        O825   1.276       .  A
O817       Ni836   1.927       .  S
O817        C823   1.269       .  A
O818       Ni836   1.893       .  S
O818        C820   1.258       .  A
Ni819      O1814   1.965   1_455  S
Ni819       O824   1.896       .  S
Ni819      O1807   1.940       .  S
C820       O1822   1.296       .  A
O821       Ni837   1.884       .  S
O821        C827   1.253       .  A
O822      Ni1811   1.965       .  S
O822        C827   1.279       .  A
C823        C923   1.449       .  S
O824        C826   1.260       .  A
O825      Ni1828   1.955   1_455  S
C826        C847   1.499       .  S
C826       O1824   1.298   1_455  A
H828        O829   0.966       .  S
O829      Ni1829   1.895       .  S
O829       Ni831   1.876   1_655  S
O829      Ni1828   1.942       .  S
O830       Ni831   1.987       .  S
O830       C1812   1.296   1_455  A
Ni831       O835   1.862       .  S
Ni831       O833   1.890       .  S
Ni831      O1807   1.892       .  S
O832       Ni837   1.992       .  S
O832       C1818   1.298       .  A
C834        C883   1.454       .  S
C834        O835   1.264       .  A
Ni836      O1817   1.955       .  S
Ni836      O1821   1.942       .  S
Ni837      O1821   1.895       .  S
N839        C843   1.396       .  A
N839        C840   1.402       .  A
N839        C957   1.498       .  S
C840        C841   1.376       .  A
C840        C906   1.522       .  S
C841        C842   1.349       .  A
C841        H844   1.083       .  S
C842        C843   1.383       .  A
C842        H845   1.083   1_565  S
N846        C850   1.389       .  A
N846        C847   1.394       .  A
N846        C954   1.490       .  S
C847       C1840   1.375   1_455  A
C848       C1839   1.375       .  A
C848        C849   1.349       .  A
C848        H851   1.083       .  S
C849       C1842   1.383       .  A
C849        H852   1.081       .  S
C850       C1841   1.383   1_455  A
C850        C866   1.511       .  S
O853       Ni859   1.921   1_455  S
O853        C874   1.265       .  A
O854        C863   1.267       .  A
O855      Ni1851   1.881       .  S
O855       Ni877   1.877       .  S
O855      Ni1615   1.870   1_556  S
O855        H878   0.966       .  S
C856        O873   1.271       .  A
O857       Ni876   1.933       .  S
O857        C863   1.270       .  A
O858        C860   1.267       .  A
Ni859      O1854   1.919       .  S
Ni859       O864   1.918   1_655  S
Ni859      O1847   1.881       .  S
C860       O1862   1.279       .  A
O861       Ni877   1.895       .  S
O861        C867   1.277       .  A
O862      Ni1851   1.919       .  S
O862        C867   1.274       .  A
C863        C927   1.460       .  S
O865      Ni1868   1.943       .  S
C866       O1864   1.280       .  A
H868        O869   0.967       .  S
O869      Ni1125   1.886   1_455  S
O869      Ni1868   1.894       .  S
O870       Ni871   1.965   1_655  S
O870       C1852   1.279       .  A
Ni871       O873   1.862       .  S
Ni871      O1599   1.870   1_455  S
O872       C1858   1.280       .  A
C874        C887   1.459       .  S
C874        O875   1.268   1_556  A
Ni876      O1857   1.943       .  S
Ni876      O1861   1.894       .  S
Ni877      O1117   1.886   1_556  S
N879        C883   1.358       .  A
N879        C880   1.355       .  A
N879        C944   1.457       .  S
C880        C881   1.377       .  A
C881        C882   1.354       .  A
C881        H884   1.083       .  S
C882        C883   1.381       .  A
C882        H885   1.074       .  S
N886        C890   1.362       .  A
N886        C887   1.362       .  A
N886        C947   1.457       .  S
C887        C888   1.380   1_556  A
C888        C889   1.359   1_554  A
C889        C890   1.376       .  A
C890        C914   1.462       .  S
O893       Ni899   1.952       .  S
O893        C914   1.277       .  A
O894        C903   1.267       .  A
O895       Ni899   1.922       .  S
O895       Ni917   1.866       .  S
O895        H918   0.966       .  S
C896        O913   1.272       .  A
C896        O905   1.284       .  A
O897       Ni916   1.948       .  S
O897        C903   1.276       .  A
O898       Ni916   1.940       .  S
O898        C900   1.269       .  A
Ni899       O902   1.958       .  S
Ni899       O904   1.929       .  S
C900        O910   1.294       .  A
O901       Ni917   1.884       .  S
O901        C907   1.267       .  A
O902        C907   1.284       .  A
C903        C930   1.458       .  S
O904        C906   1.266       .  A
O905       Ni916   1.964       .  S
C906        O912   1.295       .  A
H908        O909   0.966       .  S
O909       Ni911   1.864       .  S
O909       Ni916   1.924       .  S
O910       Ni911   1.980       .  S
Ni911       O913   1.890       .  S
O912       Ni917   1.981       .  S
C914        O915   1.268       .  A
N919        C923   1.356       .  A
N919        C920   1.350       .  A
N919        C934   1.456       .  S
C920        C921   1.381       .  A
C921        C922   1.362       .  A
C921        H924   1.083       .  S
C922        C923   1.383       .  A
C922        H925   1.083       .  S
N926        C930   1.358       .  A
N926        C927   1.359       .  A
N926        C937   1.455       .  S
C927        C928   1.382       .  A
C928        C929   1.365       .  A
C929        C930   1.380       .  A
C933        C934   1.408       .  A
C933        C938   1.407       .  A
C933       Br940   1.928       .  S
C934        C935   1.420       .  A
C935        C936   1.405       .  A
C935       Br942   1.930       .  S
C936        C937   1.409       .  A
C936       Br941   1.927       .  S
C937        C938   1.419       .  A
C938       Br939   1.923       .  S
C943        C944   1.406       .  A
C943        C948   1.409       .  A
C943       Br950   1.929       .  S
C944        C945   1.418       .  A
C945        C946   1.404       .  A
C945       Br952   1.909       .  S
C946        C947   1.402       .  A
C946       Br951   1.925       .  S
C947        C948   1.419       .  A
C948       Br949   1.903       .  S
C953        C954   1.411       .  A
C953        C958   1.436       .  A
C953       Br960   1.924       .  S
C954        C955   1.427       .  A
C955        C956   1.437       .  A
C955       Br962   1.918       .  S
C956        C957   1.416       .  A
C956       Br961   1.916       .  S
C957        C958   1.433       .  A
C958       Br959   1.909       .  S
C963        C964   1.431       .  A
C963        C968   1.431       .  A
C963       Br970   1.930       .  S
C964        C965   1.418       .  A
C965        C966   1.432       .  A
C965       Br972   1.924       .  S
C966        C967   1.428       .  A
C966       Br971   1.930       .  S
C967        C968   1.415       .  A
C968       Br969   1.924       .  S
C973        C974   1.407       .  A
C973        C978   1.408       .  A
C973       Br980   1.910       .  S
C974        C975   1.404       .  A
C975        C976   1.410       .  A
C975       Br982   1.913       .  S
C976        C977   1.415       .  A
C976       Br981   1.921       .  S
C977        C978   1.413       .  A
C978       Br979   1.920       .  S
C983        C984   1.410       .  A
C983        C988   1.413       .  A
C983       Br990   1.919       .  S
C984        C985   1.409       .  A
C985        C986   1.414       .  A
C985       Br992   1.924       .  S
C986        C987   1.408       .  A
C986       Br991   1.902       .  S
C987        C988   1.407       .  A
C988       Br989   1.911       .  S
N993        C997   1.370       .  A
N993        C994   1.369       .  A
N993       C1235   1.456       .  S
C994        C995   1.377       .  A
C994       C1064   1.464       .  S
C995        C996   1.360       .  A
C995        H998   1.083       .  S
C996        C997   1.383       .  A
C996        H999   1.083       .  S
C997       C1144   1.476       .  S
N1000      C1500   1.357       .  A
N1000      C1497   1.358       .  A
N1000      C1232   1.454       .  S
C1001      N1496   1.358       .  A
C1001      C1002   1.381       .  A
C1001      C1010   1.447       .  S
C1002      C1003   1.355       .  A
C1002      H1005   1.083       .  S
C1003      C1004   1.381       .  A
C1003      H1006   1.083       .  S
C1004      N1496   1.357       .  A
C1004      C1104   1.448       .  S
O1007     Ni1013   1.907       .  S
O1007      C1028   1.265       .  A
O1008     Ni1527   1.863       .  S
O1008      C1017   1.261       .  A
O1009     Ni1013   1.871       .  S
O1009     Ni1031   1.867   1_545  S
O1009     Ni1025   1.881       .  S
O1009      H1032   0.966       .  S
C1010      O1027   1.274       .  A
C1010      O1515   1.282   1_545  A
O1011     Ni1030   1.918       .  S
O1011      C1017   1.271       .  A
O1012     Ni1526   1.931   1_545  S
O1012      C1014   1.273       .  A
Ni1013     O1016   1.911       .  S
Ni1013     O1018   1.924       .  S
C1014      C1048   1.521       .  S
C1014      O1024   1.277       .  A
O1015     Ni1031   1.896       .  S
O1015      C1021   1.278   1_565  A
O1016      C1021   1.274       .  A
C1017      C1168   1.444       .  S
O1018      C1516   1.272   1_545  A
O1019     Ni1030   1.931       .  S
O1019      C1506   1.282       .  A
C1020      C1091   1.526       .  S
C1020      O1514   1.272       .  A
C1020      O1026   1.279       .  A
C1021      C1041   1.456       .  S
H1022      O1023   0.967       .  S
O1023     Ni1527   1.896       .  S
O1023     Ni1521   1.867       .  S
O1023     Ni1030   1.882       .  S
O1024     Ni1025   1.969       .  S
Ni1025     O1029   1.865       .  S
Ni1025     O1027   1.875       .  S
Ni1025     O1519   1.867   1_545  S
O1026     Ni1527   1.979       .  S
C1028      C1128   1.442       .  S
C1028      O1029   1.262       .  A
Ni1030     O1508   1.931       .  S
Ni1031     O1504   1.863       .  S
Ni1031     O1522   1.979       .  S
Ni1031     O1519   1.896       .  S
N1033      C1037   1.370       .  A
N1033      C1034   1.369       .  A
N1033      C1222   1.461       .  S
C1034      C1035   1.378       .  A
C1034      C1075   1.467       .  S
C1035      C1036   1.364       .  A
C1035      H1038   1.083       .  S
C1036      C1037   1.382       .  A
C1036      H1039   1.083       .  S
C1037      C1155   1.472       .  S
N1040      C1044   1.368       .  A
N1040      C1041   1.367       .  A
N1040      C1225   1.465       .  S
C1041      C1538   1.378   1_545  A
C1042      C1537   1.378       .  A
C1042      C1043   1.350       .  A
C1042      H1045   1.083       .  S
C1043      C1540   1.383       .  A
C1043      H1046   1.083       .  S
C1044      C1539   1.383   1_545  A
C1044      C1115   1.463       .  S
N1047      C1051   1.401       .  A
N1047      C1048   1.391       .  A
N1047      C1212   1.487       .  S
C1048      C1049   1.381       .  A
C1049      C1050   1.355       .  A
C1049      H1052   1.083       .  S
C1050      C1051   1.379       .  A
C1050      H1053   1.083       .  S
C1051      C1148   1.526       .  S
N1054      C1058   1.380       .  A
N1054      C1055   1.391       .  A
N1054      C1215   1.484       .  S
C1055      C1068   1.497       .  S
C1056      C1057   1.355       .  A
C1056      H1059   1.083       .  S
C1057      H1060   1.083       .  S
C1058      C1108   1.498       .  S
O1061     Ni1067   1.939       .  S
O1061      C1082   1.274       .  A
O1062     Ni1085   1.865       .  S
O1062      C1071   1.264       .  A
O1063     Ni1085   1.871   1_455  S
O1063      H1086   0.966       .  S
C1064      O1081   1.256       .  A
C1064      O1073   1.276       .  A
O1065     Ni1084   1.927       .  S
O1065      C1071   1.269       .  A
O1066     Ni1084   1.893       .  S
O1066      C1068   1.258       .  A
Ni1067     O1072   1.896       .  S
O1069     Ni1085   1.884       .  S
O1069      C1075   1.253       .  A
O1070      C1075   1.279       .  A
C1071      C1171   1.449       .  S
O1072      C1074   1.260       .  A
C1074      C1095   1.499       .  S
H1076      O1077   0.966       .  S
O1077     Ni1079   1.876       .  S
O1078     Ni1079   1.987       .  S
Ni1079     O1083   1.862       .  S
Ni1079     O1081   1.890       .  S
O1080     Ni1085   1.992       .  S
C1082      C1131   1.454       .  S
C1082      O1083   1.264       .  A
N1087      C1091   1.396       .  A
N1087      C1088   1.402       .  A
N1087      C1205   1.498       .  S
C1088      C1089   1.376       .  A
C1088      C1154   1.522       .  S
C1089      C1090   1.349       .  A
C1089      H1092   1.083       .  S
C1090      C1091   1.383       .  A
C1090      H1093   1.083       .  S
N1094      C1098   1.389       .  A
N1094      C1095   1.394       .  A
N1094      C1202   1.490       .  S
C1096      C1097   1.349       .  A
C1096      H1099   1.083       .  S
C1097      H1100   1.081       .  S
C1098      C1114   1.511       .  S
O1101     Ni1107   1.921       .  S
O1101      C1122   1.265       .  A
O1102     Ni1869   1.883       .  S
O1102      C1111   1.267   1_556  A
O1103     Ni1125   1.877   1_545  S
O1103      H1126   0.966       .  S
C1104      O1121   1.271       .  A
C1104      O1609   1.283   1_545  A
O1105     Ni1124   1.933   1_655  S
O1105      C1111   1.270       .  A
O1106     Ni1620   1.914   1_645  S
O1106      C1108   1.267       .  A
Ni1107     O1112   1.918       .  S
O1109     Ni1125   1.894       .  S
O1109      C1115   1.277   1_565  A
O1110      C1115   1.274       .  A
C1111      C1175   1.460       .  S
O1112      C1610   1.272   1_545  A
O1113      C1600   1.283       .  A
C1114      O1608   1.272       .  A
H1116      O1117   0.967       .  S
O1117     Ni1615   1.880       .  S
O1118     Ni1119   1.965       .  S
Ni1119     O1371   1.887       .  S
Ni1119     O1121   1.862       .  S
Ni1119     O1613   1.880   1_545  S
O1120     Ni1621   1.977   1_455  S
C1122      C1135   1.459       .  S
C1122      O1123   1.268       .  A
O1123     Ni1367   1.887       .  S
Ni1124     O1602   1.914   1_455  S
Ni1125     O1846   1.883       .  S
Ni1125     O1616   1.977   1_655  S
N1127      C1131   1.358       .  A
N1127      C1128   1.355       .  A
N1127      C1192   1.457       .  S
C1128      C1129   1.377       .  A
C1129      C1130   1.354       .  A
C1129      H1132   1.083       .  S
C1130      C1131   1.381       .  A
C1130      H1133   1.074       .  S
N1134      C1138   1.362       .  A
N1134      C1135   1.362       .  A
N1134      C1195   1.457       .  S
C1135      C1136   1.380       .  A
C1136      C1137   1.359       .  A
C1136      H1387   1.083       .  S
C1137      C1138   1.376       .  A
C1137      H1388   1.076       .  S
C1138      C1162   1.462       .  S
H1139      C1384   1.083       .  S
H1140      C1385   1.076   1_554  S
O1141     Ni1147   1.952       .  S
O1141      C1162   1.277       .  A
O1142     Ni1413   1.867   1_554  S
O1142      C1151   1.267       .  A
O1143     Ni1147   1.922       .  S
O1143     Ni1165   1.866       .  S
O1143     Ni1407   1.893       .  S
O1143      H1166   0.966       .  S
C1144      O1161   1.272       .  A
C1144      O1153   1.284       .  A
O1145     Ni1164   1.948       .  S
O1145      C1151   1.276       .  A
O1146     Ni1164   1.940       .  S
O1146      C1148   1.269       .  A
Ni1147     O1150   1.958       .  S
Ni1147     O1152   1.929       .  S
C1148      O1158   1.294       .  A
O1149     Ni1165   1.884       .  S
O1149      C1155   1.267       .  A
O1150      C1155   1.284       .  A
C1151      C1178   1.458       .  S
O1152      C1154   1.266       .  A
O1153     Ni1164   1.964       .  S
C1154      O1160   1.295       .  A
H1156      O1157   0.966       .  S
O1157     Ni1413   1.895   1_554  S
O1157     Ni1159   1.864       .  S
O1157     Ni1164   1.924       .  S
O1158     Ni1159   1.980       .  S
Ni1159     O1411   1.873   1_554  S
Ni1159     O1161   1.890       .  S
Ni1159     O1391   1.893   1_554  S
O1160     Ni1165   1.981       .  S
C1162      O1163   1.268       .  A
O1163     Ni1407   1.873       .  S
Ni1165     O1390   1.867       .  S
Ni1165     O1405   1.895       .  S
N1167      C1171   1.356       .  A
N1167      C1168   1.350       .  A
N1167      C1182   1.456       .  S
C1168      C1169   1.381       .  A
C1169      C1170   1.362       .  A
C1169      H1172   1.083       .  S
C1170      C1171   1.383       .  A
C1170      H1173   1.083       .  S
N1174      C1178   1.358       .  A
N1174      C1175   1.359       .  A
N1174      C1185   1.455       .  S
C1175      C1176   1.382   1_554  A
C1176      C1177   1.365   1_556  A
C1176      H1427   1.083       .  S
C1177      C1178   1.380       .  A
C1177      H1428   1.082   1_554  S
H1179      C1424   1.083       .  S
H1180      C1425   1.082       .  S
C1181      C1182   1.408       .  A
C1181      C1186   1.407       .  A
C1181     Br1188   1.928       .  S
C1182      C1183   1.420       .  A
C1183      C1184   1.405       .  A
C1183     Br1190   1.930       .  S
C1184      C1185   1.409       .  A
C1184     Br1189   1.927       .  S
C1185      C1186   1.419       .  A
C1186     Br1187   1.923       .  S
C1191      C1192   1.406       .  A
C1191      C1196   1.409       .  A
C1191     Br1198   1.929       .  S
C1192      C1193   1.418       .  A
C1193      C1194   1.404       .  A
C1193     Br1200   1.909       .  S
C1194      C1195   1.402       .  A
C1194     Br1199   1.925       .  S
C1195      C1196   1.419       .  A
C1196     Br1197   1.903       .  S
C1201      C1202   1.411       .  A
C1201      C1206   1.436       .  A
C1201     Br1208   1.924       .  S
C1202      C1203   1.427       .  A
C1203      C1204   1.437       .  A
C1203     Br1210   1.918       .  S
C1204      C1205   1.416       .  A
C1204     Br1209   1.916       .  S
C1205      C1206   1.433       .  A
C1206     Br1207   1.909       .  S
C1211      C1212   1.431       .  A
C1211      C1216   1.431       .  A
C1211     Br1218   1.930       .  S
C1212      C1213   1.418       .  A
C1213      C1214   1.432       .  A
C1213     Br1220   1.924       .  S
C1214      C1215   1.428       .  A
C1214     Br1219   1.930       .  S
C1215      C1216   1.415       .  A
C1216     Br1217   1.924       .  S
C1221      C1222   1.407       .  A
C1221      C1226   1.408       .  A
C1221     Br1228   1.910       .  S
C1222      C1223   1.404       .  A
C1223      C1224   1.410       .  A
C1223     Br1230   1.913       .  S
C1224      C1225   1.415       .  A
C1224     Br1229   1.921       .  S
C1225      C1226   1.413       .  A
C1226     Br1227   1.920       .  S
C1231      C1232   1.410       .  A
C1231      C1236   1.413       .  A
C1231     Br1238   1.919       .  S
C1232      C1233   1.409       .  A
C1233      C1234   1.414       .  A
C1233     Br1240   1.924       .  S
C1234      C1235   1.408       .  A
C1234     Br1239   1.902       .  S
C1235      C1236   1.407       .  A
C1236     Br1237   1.911       .  S
N1241      C1245   1.370       .  A
N1241      C1242   1.369       .  A
N1241      C1483   1.456       .  S
C1242      C1243   1.377       .  A
C1242      C1312   1.464       .  S
C1243      C1244   1.360       .  A
C1243      H1246   1.083       .  S
C1244      C1245   1.383       .  A
C1244      H1247   1.083       .  S
C1245      C1392   1.476       .  S
N1248      C1748   1.357       .  A
N1248      C1745   1.358       .  A
N1248      C1480   1.454       .  S
C1249      N1744   1.358       .  A
C1249      C1250   1.381       .  A
C1249      C1258   1.447       .  S
C1250      C1251   1.355       .  A
C1250      H1253   1.083       .  S
C1251      C1252   1.381       .  A
C1251      H1254   1.083       .  S
C1252      N1744   1.357       .  A
C1252      C1352   1.448       .  S
O1255     Ni1261   1.907       .  S
O1255      C1276   1.265       .  A
O1256     Ni1775   1.863       .  S
O1256      C1265   1.261       .  A
O1257     Ni1261   1.871       .  S
O1257     Ni1279   1.867   1_545  S
O1257     Ni1273   1.881       .  S
O1257      H1280   0.966       .  S
C1258      O1275   1.274       .  A
C1258      O1763   1.282   1_545  A
O1259     Ni1278   1.918       .  S
O1259      C1265   1.271       .  A
O1260     Ni1774   1.931   1_545  S
O1260      C1262   1.273       .  A
Ni1261     O1264   1.911       .  S
Ni1261     O1266   1.924       .  S
C1262      C1296   1.521       .  S
C1262      O1272   1.277       .  A
O1263     Ni1279   1.896       .  S
O1263      C1269   1.278   1_565  A
O1264      C1269   1.274       .  A
C1265      C1416   1.444       .  S
O1266      C1764   1.272   1_545  A
O1267     Ni1278   1.931       .  S
O1267      C1754   1.282       .  A
C1268      C1339   1.526       .  S
C1268      O1762   1.272       .  A
C1268      O1274   1.279       .  A
C1269      C1289   1.456       .  S
H1270      O1271   0.967       .  S
O1271     Ni1775   1.896       .  S
O1271     Ni1769   1.867       .  S
O1271     Ni1278   1.882       .  S
O1272     Ni1273   1.969       .  S
Ni1273     O1277   1.865       .  S
Ni1273     O1275   1.875       .  S
Ni1273     O1767   1.867   1_545  S
O1274     Ni1775   1.979       .  S
C1276      C1376   1.442       .  S
C1276      O1277   1.262       .  A
Ni1278     O1756   1.931       .  S
Ni1279     O1752   1.863       .  S
Ni1279     O1770   1.979       .  S
Ni1279     O1767   1.896       .  S
N1281      C1285   1.370       .  A
N1281      C1282   1.369       .  A
N1281      C1470   1.461       .  S
C1282      C1283   1.378       .  A
C1282      C1323   1.467       .  S
C1283      C1284   1.364       .  A
C1283      H1286   1.083       .  S
C1284      C1285   1.382       .  A
C1284      H1287   1.083       .  S
C1285      C1403   1.472       .  S
N1288      C1292   1.368       .  A
N1288      C1289   1.367       .  A
N1288      C1473   1.465       .  S
C1289      C1786   1.378   1_545  A
C1290      C1785   1.378       .  A
C1290      C1291   1.350       .  A
C1290      H1293   1.083       .  S
C1291      C1788   1.383       .  A
C1291      H1294   1.083       .  S
C1292      C1787   1.383   1_545  A
C1292      C1363   1.463       .  S
N1295      C1299   1.401       .  A
N1295      C1296   1.391       .  A
N1295      C1460   1.487       .  S
C1296      C1297   1.381       .  A
C1297      C1298   1.355       .  A
C1297      H1300   1.083       .  S
C1298      C1299   1.379       .  A
C1298      H1301   1.083       .  S
C1299      C1396   1.526       .  S
N1302      C1306   1.380       .  A
N1302      C1303   1.391       .  A
N1302      C1463   1.484       .  S
C1303      C1316   1.497       .  S
C1304      C1305   1.355       .  A
C1304      H1307   1.083       .  S
C1305      H1308   1.083       .  S
C1306      C1356   1.498       .  S
O1309     Ni1315   1.939       .  S
O1309      C1330   1.274       .  A
O1310     Ni1333   1.865       .  S
O1310      C1319   1.264       .  A
O1311     Ni1333   1.871   1_455  S
O1311      H1334   0.966       .  S
C1312      O1329   1.256       .  A
C1312      O1321   1.276       .  A
O1313     Ni1332   1.927       .  S
O1313      C1319   1.269       .  A
O1314     Ni1332   1.893       .  S
O1314      C1316   1.258       .  A
Ni1315     O1320   1.896       .  S
O1317     Ni1333   1.884       .  S
O1317      C1323   1.253       .  A
O1318      C1323   1.279       .  A
C1319      C1419   1.449       .  S
O1320      C1322   1.260       .  A
C1322      C1343   1.499       .  S
H1324      O1325   0.966       .  S
O1325     Ni1327   1.876       .  S
O1326     Ni1327   1.987       .  S
Ni1327     O1331   1.862       .  S
Ni1327     O1329   1.890       .  S
O1328     Ni1333   1.992       .  S
C1330      C1379   1.454       .  S
C1330      O1331   1.264       .  A
N1335      C1339   1.396       .  A
N1335      C1336   1.402       .  A
N1335      C1453   1.498       .  S
C1336      C1337   1.376       .  A
C1336      C1402   1.522       .  S
C1337      C1338   1.349       .  A
C1337      H1340   1.083       .  S
C1338      C1339   1.383       .  A
C1338      H1341   1.083       .  S
N1342      C1346   1.389       .  A
N1342      C1343   1.394       .  A
N1342      C1450   1.490       .  S
C1344      C1345   1.349       .  A
C1344      H1347   1.083       .  S
C1345      H1348   1.081       .  S
C1346      C1362   1.511       .  S
O1349     Ni1355   1.921       .  S
O1349      C1370   1.265       .  A
O1350     Ni1621   1.883       .  S
O1350      C1359   1.267       .  A
O1351     Ni1373   1.877   1_545  S
O1351      H1374   0.966       .  S
C1352      O1369   1.271       .  A
C1352      O1857   1.283   1_545  A
O1353     Ni1372   1.933   1_655  S
O1353      C1359   1.270       .  A
O1354     Ni1868   1.914   1_645  S
O1354      C1356   1.267       .  A
Ni1355     O1360   1.918       .  S
O1357     Ni1373   1.894       .  S
O1357      C1363   1.277   1_565  A
O1358      C1363   1.274       .  A
C1359      C1423   1.460       .  S
O1360      C1858   1.272   1_545  A
O1361      C1848   1.283       .  A
C1362      O1856   1.272       .  A
H1364      O1365   0.967       .  S
O1365     Ni1863   1.880       .  S
O1366     Ni1367   1.965       .  S
Ni1367     O1369   1.862       .  S
Ni1367     O1861   1.880   1_545  S
O1368     Ni1869   1.977   1_455  S
C1370      C1383   1.459       .  S
C1370      O1371   1.268   1_556  A
Ni1372     O1850   1.914   1_455  S
Ni1373     O1598   1.883       .  S
Ni1373     O1864   1.977   1_655  S
N1375      C1379   1.358       .  A
N1375      C1376   1.355       .  A
N1375      C1440   1.457       .  S
C1376      C1377   1.377       .  A
C1377      C1378   1.354       .  A
C1377      H1380   1.083       .  S
C1378      C1379   1.381       .  A
C1378      H1381   1.074       .  S
N1382      C1386   1.362       .  A
N1382      C1383   1.362       .  A
N1382      C1443   1.457       .  S
C1383      C1384   1.380   1_556  A
C1384      C1385   1.359   1_554  A
C1385      C1386   1.376       .  A
C1386      C1410   1.462       .  S
O1389     Ni1395   1.952       .  S
O1389      C1410   1.277       .  A
O1390      C1399   1.267       .  A
O1391     Ni1395   1.922       .  S
O1391     Ni1413   1.866       .  S
O1391      H1414   0.966       .  S
C1392      O1409   1.272       .  A
C1392      O1401   1.284       .  A
O1393     Ni1412   1.948       .  S
O1393      C1399   1.276       .  A
O1394     Ni1412   1.940       .  S
O1394      C1396   1.269       .  A
Ni1395     O1398   1.958       .  S
Ni1395     O1400   1.929       .  S
C1396      O1406   1.294       .  A
O1397     Ni1413   1.884       .  S
O1397      C1403   1.267       .  A
O1398      C1403   1.284       .  A
C1399      C1426   1.458       .  S
O1400      C1402   1.266       .  A
O1401     Ni1412   1.964       .  S
C1402      O1408   1.295       .  A
H1404      O1405   0.966       .  S
O1405     Ni1407   1.864       .  S
O1405     Ni1412   1.924       .  S
O1406     Ni1407   1.980       .  S
Ni1407     O1409   1.890       .  S
O1408     Ni1413   1.981       .  S
C1410      O1411   1.268       .  A
N1415      C1419   1.356       .  A
N1415      C1416   1.350       .  A
N1415      C1430   1.456       .  S
C1416      C1417   1.381       .  A
C1417      C1418   1.362       .  A
C1417      H1420   1.083       .  S
C1418      C1419   1.383       .  A
C1418      H1421   1.083       .  S
N1422      C1426   1.358       .  A
N1422      C1423   1.359       .  A
N1422      C1433   1.455       .  S
C1423      C1424   1.382       .  A
C1424      C1425   1.365       .  A
C1425      C1426   1.380       .  A
C1429      C1430   1.408       .  A
C1429      C1434   1.407       .  A
C1429     Br1436   1.928       .  S
C1430      C1431   1.420       .  A
C1431      C1432   1.405       .  A
C1431     Br1438   1.930       .  S
C1432      C1433   1.409       .  A
C1432     Br1437   1.927       .  S
C1433      C1434   1.419       .  A
C1434     Br1435   1.923       .  S
C1439      C1440   1.406       .  A
C1439      C1444   1.409       .  A
C1439     Br1446   1.929       .  S
C1440      C1441   1.418       .  A
C1441      C1442   1.404       .  A
C1441     Br1448   1.909       .  S
C1442      C1443   1.402       .  A
C1442     Br1447   1.925       .  S
C1443      C1444   1.419       .  A
C1444     Br1445   1.903       .  S
C1449      C1450   1.411       .  A
C1449      C1454   1.436       .  A
C1449     Br1456   1.924       .  S
C1450      C1451   1.427       .  A
C1451      C1452   1.437       .  A
C1451     Br1458   1.918       .  S
C1452      C1453   1.416       .  A
C1452     Br1457   1.916       .  S
C1453      C1454   1.433       .  A
C1454     Br1455   1.909       .  S
C1459      C1460   1.431       .  A
C1459      C1464   1.431       .  A
C1459     Br1466   1.930       .  S
C1460      C1461   1.418       .  A
C1461      C1462   1.432       .  A
C1461     Br1468   1.924       .  S
C1462      C1463   1.428       .  A
C1462     Br1467   1.930       .  S
C1463      C1464   1.415       .  A
C1464     Br1465   1.924       .  S
C1469      C1470   1.407       .  A
C1469      C1474   1.408       .  A
C1469     Br1476   1.910       .  S
C1470      C1471   1.404       .  A
C1471      C1472   1.410       .  A
C1471     Br1478   1.913       .  S
C1472      C1473   1.415       .  A
C1472     Br1477   1.921       .  S
C1473      C1474   1.413       .  A
C1474     Br1475   1.920       .  S
C1479      C1480   1.410       .  A
C1479      C1484   1.413       .  A
C1479     Br1486   1.919       .  S
C1480      C1481   1.409       .  A
C1481      C1482   1.414       .  A
C1481     Br1488   1.924       .  S
C1482      C1483   1.408       .  A
C1482     Br1487   1.902       .  S
C1483      C1484   1.407       .  A
C1484     Br1485   1.911       .  S
N1489      C1493   1.370       .  A
N1489      C1490   1.369       .  A
N1489      C1731   1.456       .  S
C1490      C1491   1.377       .  A
C1490      C1560   1.464       .  S
C1491      C1492   1.360       .  A
C1491      H1494   1.083       .  S
C1492      C1493   1.383       .  A
C1492      H1495   1.083       .  S
C1493      C1640   1.476       .  S
N1496      C1728   1.454   1_545  S
C1497      C1498   1.381       .  A
C1497      C1506   1.447       .  S
C1498      C1499   1.355       .  A
C1498      H1501   1.083       .  S
C1499      C1500   1.381       .  A
C1499      H1502   1.083       .  S
C1500      C1600   1.448       .  S
O1503     Ni1509   1.907       .  S
O1503      C1524   1.265       .  A
O1504      C1513   1.261       .  A
O1505     Ni1509   1.871       .  S
O1505     Ni1527   1.867       .  S
O1505     Ni1521   1.881       .  S
O1505      H1528   0.966       .  S
C1506      O1523   1.274       .  A
O1507     Ni1526   1.918       .  S
O1507      C1513   1.271       .  A
O1508      C1510   1.273       .  A
Ni1509     O1512   1.911       .  S
Ni1509     O1514   1.924       .  S
C1510      C1544   1.521       .  S
C1510      O1520   1.277       .  A
O1511     Ni1527   1.896       .  S
O1511      C1517   1.278       .  A
O1512      C1517   1.274       .  A
C1513      C1664   1.444       .  S
O1515     Ni1526   1.931       .  S
C1516      C1587   1.526       .  S
C1516      O1522   1.279       .  A
C1517      C1537   1.456       .  S
H1518      O1519   0.967       .  S
O1519     Ni1526   1.882       .  S
O1520     Ni1521   1.969       .  S
Ni1521     O1525   1.865       .  S
Ni1521     O1523   1.875       .  S
C1524      C1624   1.442       .  S
C1524      O1525   1.262       .  A
N1529      C1533   1.370       .  A
N1529      C1530   1.369       .  A
N1529      C1718   1.461       .  S
C1530      C1531   1.378       .  A
C1530      C1571   1.467       .  S
C1531      C1532   1.364       .  A
C1531      H1534   1.083       .  S
C1532      C1533   1.382       .  A
C1532      H1535   1.083       .  S
C1533      C1651   1.472       .  S
N1536      C1540   1.368       .  A
N1536      C1537   1.367       .  A
N1536      C1721   1.465       .  S
C1538      C1539   1.350       .  A
C1538      H1541   1.083       .  S
C1539      H1542   1.083       .  S
C1540      C1611   1.463       .  S
N1543      C1547   1.401       .  A
N1543      C1544   1.391       .  A
N1543      C1708   1.487       .  S
C1544      C1545   1.381       .  A
C1545      C1546   1.355       .  A
C1545      H1548   1.083       .  S
C1546      C1547   1.379       .  A
C1546      H1549   1.083       .  S
C1547      C1644   1.526       .  S
N1550      C1554   1.380       .  A
N1550      C1551   1.391       .  A
N1550      C1711   1.484       .  S
C1551      C1564   1.497       .  S
C1552      C1553   1.355       .  A
C1552      H1555   1.083       .  S
C1553      H1556   1.083       .  S
C1554      C1604   1.498       .  S
O1557     Ni1563   1.939       .  S
O1557      C1578   1.274       .  A
O1558     Ni1581   1.865       .  S
O1558      C1567   1.264       .  A
O1559     Ni1581   1.871   1_455  S
O1559      H1582   0.966       .  S
C1560      O1577   1.256       .  A
C1560      O1569   1.276       .  A
O1561     Ni1580   1.927       .  S
O1561      C1567   1.269       .  A
O1562     Ni1580   1.893       .  S
O1562      C1564   1.258       .  A
Ni1563     O1568   1.896       .  S
O1565     Ni1581   1.884       .  S
O1565      C1571   1.253       .  A
O1566      C1571   1.279       .  A
C1567      C1667   1.449       .  S
O1568      C1570   1.260       .  A
C1570      C1591   1.499       .  S
H1572      O1573   0.966       .  S
O1573     Ni1575   1.876       .  S
O1574     Ni1575   1.987       .  S
Ni1575     O1579   1.862       .  S
Ni1575     O1577   1.890       .  S
O1576     Ni1581   1.992       .  S
C1578      C1627   1.454       .  S
C1578      O1579   1.264       .  A
N1583      C1587   1.396       .  A
N1583      C1584   1.402       .  A
N1583      C1701   1.498       .  S
C1584      C1585   1.376       .  A
C1584      C1650   1.522       .  S
C1585      C1586   1.349       .  A
C1585      H1588   1.083       .  S
C1586      C1587   1.383       .  A
C1586      H1589   1.083   1_565  S
N1590      C1594   1.389       .  A
N1590      C1591   1.394       .  A
N1590      C1698   1.490       .  S
C1592      C1593   1.349       .  A
C1592      H1595   1.083       .  S
C1593      H1596   1.081       .  S
C1594      C1610   1.511       .  S
O1597     Ni1603   1.921       .  S
O1597      C1618   1.265       .  A
O1598      C1607   1.267   1_556  A
O1599     Ni1621   1.877       .  S
O1599      H1622   0.966       .  S
C1600      O1617   1.271       .  A
O1601     Ni1620   1.933   1_655  S
O1601      C1607   1.270       .  A
O1602      C1604   1.267       .  A
Ni1603     O1608   1.918       .  S
O1605     Ni1621   1.895       .  S
O1605      C1611   1.277       .  A
O1606      C1611   1.274       .  A
C1607      C1671   1.460       .  S
H1612      O1613   0.967       .  S
O1614     Ni1615   1.965       .  S
Ni1615     O1867   1.887       .  S
Ni1615     O1617   1.862       .  S
C1618      C1631   1.459       .  S
C1618      O1619   1.268       .  A
O1619     Ni1863   1.887       .  S
N1623      C1627   1.358       .  A
N1623      C1624   1.355       .  A
N1623      C1688   1.457       .  S
C1624      C1625   1.377       .  A
C1625      C1626   1.354       .  A
C1625      H1628   1.083       .  S
C1626      C1627   1.381       .  A
C1626      H1629   1.074       .  S
N1630      C1634   1.362       .  A
N1630      C1631   1.362       .  A
N1630      C1691   1.457       .  S
C1631      C1632   1.380       .  A
C1632      C1633   1.359       .  A
C1632      H1883   1.083       .  S
C1633      C1634   1.376       .  A
C1633      H1884   1.076       .  S
C1634      C1658   1.462       .  S
H1635      C1880   1.083       .  S
H1636      C1881   1.076   1_554  S
O1637     Ni1643   1.952       .  S
O1637      C1658   1.277       .  A
O1638     Ni1909   1.867   1_554  S
O1638      C1647   1.267       .  A
O1639     Ni1643   1.922       .  S
O1639     Ni1661   1.866       .  S
O1639     Ni1903   1.893       .  S
O1639      H1662   0.966       .  S
C1640      O1657   1.272       .  A
C1640      O1649   1.284       .  A
O1641     Ni1660   1.948       .  S
O1641      C1647   1.276       .  A
O1642     Ni1660   1.940       .  S
O1642      C1644   1.269       .  A
Ni1643     O1646   1.958       .  S
Ni1643     O1648   1.929       .  S
C1644      O1654   1.294       .  A
O1645     Ni1661   1.884       .  S
O1645      C1651   1.267       .  A
O1646      C1651   1.284       .  A
C1647      C1674   1.458       .  S
O1648      C1650   1.266       .  A
O1649     Ni1660   1.964       .  S
C1650      O1656   1.295       .  A
H1652      O1653   0.966       .  S
O1653     Ni1909   1.895   1_554  S
O1653     Ni1655   1.864       .  S
O1653     Ni1660   1.924       .  S
O1654     Ni1655   1.980       .  S
Ni1655     O1907   1.873   1_554  S
Ni1655     O1657   1.890       .  S
Ni1655     O1887   1.893   1_554  S
O1656     Ni1661   1.981       .  S
C1658      O1659   1.268       .  A
O1659     Ni1903   1.873       .  S
Ni1661     O1886   1.867       .  S
Ni1661     O1901   1.895       .  S
N1663      C1667   1.356       .  A
N1663      C1664   1.350       .  A
N1663      C1678   1.456       .  S
C1664      C1665   1.381       .  A
C1665      C1666   1.362       .  A
C1665      H1668   1.083       .  S
C1666      C1667   1.383       .  A
C1666      H1669   1.083       .  S
N1670      C1674   1.358       .  A
N1670      C1671   1.359       .  A
N1670      C1681   1.455       .  S
C1671      C1672   1.382   1_554  A
C1672      C1673   1.365   1_556  A
C1672      H1923   1.083       .  S
C1673      C1674   1.380       .  A
C1673      H1924   1.082   1_554  S
H1675      C1920   1.083       .  S
H1676      C1921   1.082       .  S
C1677      C1678   1.408       .  A
C1677      C1682   1.407       .  A
C1677     Br1684   1.928       .  S
C1678      C1679   1.420       .  A
C1679      C1680   1.405       .  A
C1679     Br1686   1.930       .  S
C1680      C1681   1.409       .  A
C1680     Br1685   1.927       .  S
C1681      C1682   1.419       .  A
C1682     Br1683   1.923       .  S
C1687      C1688   1.406       .  A
C1687      C1692   1.409       .  A
C1687     Br1694   1.929       .  S
C1688      C1689   1.418       .  A
C1689      C1690   1.404       .  A
C1689     Br1696   1.909       .  S
C1690      C1691   1.402       .  A
C1690     Br1695   1.925       .  S
C1691      C1692   1.419       .  A
C1692     Br1693   1.903       .  S
C1697      C1698   1.411       .  A
C1697      C1702   1.436       .  A
C1697     Br1704   1.924       .  S
C1698      C1699   1.427       .  A
C1699      C1700   1.437       .  A
C1699     Br1706   1.918       .  S
C1700      C1701   1.416       .  A
C1700     Br1705   1.916       .  S
C1701      C1702   1.433       .  A
C1702     Br1703   1.909       .  S
C1707      C1708   1.431       .  A
C1707      C1712   1.431       .  A
C1707     Br1714   1.930       .  S
C1708      C1709   1.418       .  A
C1709      C1710   1.432       .  A
C1709     Br1716   1.924       .  S
C1710      C1711   1.428       .  A
C1710     Br1715   1.930       .  S
C1711      C1712   1.415       .  A
C1712     Br1713   1.924       .  S
C1717      C1718   1.407       .  A
C1717      C1722   1.408       .  A
C1717     Br1724   1.910       .  S
C1718      C1719   1.404       .  A
C1719      C1720   1.410       .  A
C1719     Br1726   1.913       .  S
C1720      C1721   1.415       .  A
C1720     Br1725   1.921       .  S
C1721      C1722   1.413       .  A
C1722     Br1723   1.920       .  S
C1727      C1728   1.410       .  A
C1727      C1732   1.413       .  A
C1727     Br1734   1.919       .  S
C1728      C1729   1.409       .  A
C1729      C1730   1.414       .  A
C1729     Br1736   1.924       .  S
C1730      C1731   1.408       .  A
C1730     Br1735   1.902       .  S
C1731      C1732   1.407       .  A
C1732     Br1733   1.911       .  S
N1737      C1741   1.370       .  A
N1737      C1738   1.369       .  A
N1737      C1979   1.456       .  S
C1738      C1739   1.377       .  A
C1738      C1808   1.464       .  S
C1739      C1740   1.360       .  A
C1739      H1742   1.083       .  S
C1740      C1741   1.383       .  A
C1740      H1743   1.083       .  S
C1741      C1888   1.476       .  S
N1744      C1976   1.454   1_545  S
C1745      C1746   1.381       .  A
C1745      C1754   1.447       .  S
C1746      C1747   1.355       .  A
C1746      H1749   1.083       .  S
C1747      C1748   1.381       .  A
C1747      H1750   1.083       .  S
C1748      C1848   1.448       .  S
O1751     Ni1757   1.907       .  S
O1751      C1772   1.265       .  A
O1752      C1761   1.261       .  A
O1753     Ni1757   1.871       .  S
O1753     Ni1775   1.867       .  S
O1753     Ni1769   1.881       .  S
O1753      H1776   0.966       .  S
C1754      O1771   1.274       .  A
O1755     Ni1774   1.918       .  S
O1755      C1761   1.271       .  A
O1756      C1758   1.273       .  A
Ni1757     O1760   1.911       .  S
Ni1757     O1762   1.924       .  S
C1758      C1792   1.521       .  S
C1758      O1768   1.277       .  A
O1759     Ni1775   1.896       .  S
O1759      C1765   1.278       .  A
O1760      C1765   1.274       .  A
C1761      C1912   1.444       .  S
O1763     Ni1774   1.931       .  S
C1764      C1835   1.526       .  S
C1764      O1770   1.279       .  A
C1765      C1785   1.456       .  S
H1766      O1767   0.967       .  S
O1767     Ni1774   1.882       .  S
O1768     Ni1769   1.969       .  S
Ni1769     O1773   1.865       .  S
Ni1769     O1771   1.875       .  S
C1772      C1872   1.442       .  S
C1772      O1773   1.262       .  A
N1777      C1781   1.370       .  A
N1777      C1778   1.369       .  A
N1777      C1966   1.461       .  S
C1778      C1779   1.378       .  A
C1778      C1819   1.467       .  S
C1779      C1780   1.364       .  A
C1779      H1782   1.083       .  S
C1780      C1781   1.382       .  A
C1780      H1783   1.083       .  S
C1781      C1899   1.472       .  S
N1784      C1788   1.368       .  A
N1784      C1785   1.367       .  A
N1784      C1969   1.465       .  S
C1786      C1787   1.350       .  A
C1786      H1789   1.083       .  S
C1787      H1790   1.083       .  S
C1788      C1859   1.463       .  S
N1791      C1795   1.401       .  A
N1791      C1792   1.391       .  A
N1791      C1956   1.487       .  S
C1792      C1793   1.381       .  A
C1793      C1794   1.355       .  A
C1793      H1796   1.083       .  S
C1794      C1795   1.379       .  A
C1794      H1797   1.083       .  S
C1795      C1892   1.526       .  S
N1798      C1802   1.380       .  A
N1798      C1799   1.391       .  A
N1798      C1959   1.484       .  S
C1799      C1812   1.497       .  S
C1800      C1801   1.355       .  A
C1800      H1803   1.083       .  S
C1801      H1804   1.083       .  S
C1802      C1852   1.498       .  S
O1805     Ni1811   1.939       .  S
O1805      C1826   1.274       .  A
O1806     Ni1829   1.865       .  S
O1806      C1815   1.264       .  A
O1807     Ni1829   1.871   1_455  S
O1807      H1830   0.966       .  S
C1808      O1825   1.256       .  A
C1808      O1817   1.276       .  A
O1809     Ni1828   1.927       .  S
O1809      C1815   1.269       .  A
O1810     Ni1828   1.893       .  S
O1810      C1812   1.258       .  A
Ni1811     O1816   1.896       .  S
O1813     Ni1829   1.884       .  S
O1813      C1819   1.253       .  A
O1814      C1819   1.279       .  A
C1815      C1915   1.449       .  S
O1816      C1818   1.260       .  A
C1818      C1839   1.499       .  S
H1820      O1821   0.966       .  S
O1821     Ni1823   1.876       .  S
O1822     Ni1823   1.987       .  S
Ni1823     O1827   1.862       .  S
Ni1823     O1825   1.890       .  S
O1824     Ni1829   1.992       .  S
C1826      C1875   1.454       .  S
C1826      O1827   1.264       .  A
N1831      C1835   1.396       .  A
N1831      C1832   1.402       .  A
N1831      C1949   1.498       .  S
C1832      C1833   1.376       .  A
C1832      C1898   1.522       .  S
C1833      C1834   1.349       .  A
C1833      H1836   1.083       .  S
C1834      C1835   1.383       .  A
C1834      H1837   1.083   1_565  S
N1838      C1842   1.389       .  A
N1838      C1839   1.394       .  A
N1838      C1946   1.490       .  S
C1840      C1841   1.349       .  A
C1840      H1843   1.083       .  S
C1841      H1844   1.081       .  S
C1842      C1858   1.511       .  S
O1845     Ni1851   1.921       .  S
O1845      C1866   1.265       .  A
O1846      C1855   1.267       .  A
O1847     Ni1869   1.877       .  S
O1847      H1870   0.966       .  S
C1848      O1865   1.271       .  A
O1849     Ni1868   1.933   1_655  S
O1849      C1855   1.270       .  A
O1850      C1852   1.267       .  A
Ni1851     O1856   1.918       .  S
O1853     Ni1869   1.895       .  S
O1853      C1859   1.277       .  A
O1854      C1859   1.274       .  A
C1855      C1919   1.460       .  S
H1860      O1861   0.967       .  S
O1862     Ni1863   1.965       .  S
Ni1863     O1865   1.862       .  S
C1866      C1879   1.459       .  S
C1866      O1867   1.268   1_556  A
N1871      C1875   1.358       .  A
N1871      C1872   1.355       .  A
N1871      C1936   1.457       .  S
C1872      C1873   1.377       .  A
C1873      C1874   1.354       .  A
C1873      H1876   1.083       .  S
C1874      C1875   1.381       .  A
C1874      H1877   1.074       .  S
N1878      C1882   1.362       .  A
N1878      C1879   1.362       .  A
N1878      C1939   1.457       .  S
C1879      C1880   1.380   1_556  A
C1880      C1881   1.359   1_554  A
C1881      C1882   1.376       .  A
C1882      C1906   1.462       .  S
O1885     Ni1891   1.952       .  S
O1885      C1906   1.277       .  A
O1886      C1895   1.267       .  A
O1887     Ni1891   1.922       .  S
O1887     Ni1909   1.866       .  S
O1887      H1910   0.966       .  S
C1888      O1905   1.272       .  A
C1888      O1897   1.284       .  A
O1889     Ni1908   1.948       .  S
O1889      C1895   1.276       .  A
O1890     Ni1908   1.940       .  S
O1890      C1892   1.269       .  A
Ni1891     O1894   1.958       .  S
Ni1891     O1896   1.929       .  S
C1892      O1902   1.294       .  A
O1893     Ni1909   1.884       .  S
O1893      C1899   1.267       .  A
O1894      C1899   1.284       .  A
C1895      C1922   1.458       .  S
O1896      C1898   1.266       .  A
O1897     Ni1908   1.964       .  S
C1898      O1904   1.295       .  A
H1900      O1901   0.966       .  S
O1901     Ni1903   1.864       .  S
O1901     Ni1908   1.924       .  S
O1902     Ni1903   1.980       .  S
Ni1903     O1905   1.890       .  S
O1904     Ni1909   1.981       .  S
C1906      O1907   1.268       .  A
N1911      C1915   1.356       .  A
N1911      C1912   1.350       .  A
N1911      C1926   1.456       .  S
C1912      C1913   1.381       .  A
C1913      C1914   1.362       .  A
C1913      H1916   1.083       .  S
C1914      C1915   1.383       .  A
C1914      H1917   1.083       .  S
N1918      C1922   1.358       .  A
N1918      C1919   1.359       .  A
N1918      C1929   1.455       .  S
C1919      C1920   1.382       .  A
C1920      C1921   1.365       .  A
C1921      C1922   1.380       .  A
C1925      C1926   1.408       .  A
C1925      C1930   1.407       .  A
C1925     Br1932   1.928       .  S
C1926      C1927   1.420       .  A
C1927      C1928   1.405       .  A
C1927     Br1934   1.930       .  S
C1928      C1929   1.409       .  A
C1928     Br1933   1.927       .  S
C1929      C1930   1.419       .  A
C1930     Br1931   1.923       .  S
C1935      C1936   1.406       .  A
C1935      C1940   1.409       .  A
C1935     Br1942   1.929       .  S
C1936      C1937   1.418       .  A
C1937      C1938   1.404       .  A
C1937     Br1944   1.909       .  S
C1938      C1939   1.402       .  A
C1938     Br1943   1.925       .  S
C1939      C1940   1.419       .  A
C1940     Br1941   1.903       .  S
C1945      C1946   1.411       .  A
C1945      C1950   1.436       .  A
C1945     Br1952   1.924       .  S
C1946      C1947   1.427       .  A
C1947      C1948   1.437       .  A
C1947     Br1954   1.918       .  S
C1948      C1949   1.416       .  A
C1948     Br1953   1.916       .  S
C1949      C1950   1.433       .  A
C1950     Br1951   1.909       .  S
C1955      C1956   1.431       .  A
C1955      C1960   1.431       .  A
C1955     Br1962   1.930       .  S
C1956      C1957   1.418       .  A
C1957      C1958   1.432       .  A
C1957     Br1964   1.924       .  S
C1958      C1959   1.428       .  A
C1958     Br1963   1.930       .  S
C1959      C1960   1.415       .  A
C1960     Br1961   1.924       .  S
C1965      C1966   1.407       .  A
C1965      C1970   1.408       .  A
C1965     Br1972   1.910       .  S
C1966      C1967   1.404       .  A
C1967      C1968   1.410       .  A
C1967     Br1974   1.913       .  S
C1968      C1969   1.415       .  A
C1968     Br1973   1.921       .  S
C1969      C1970   1.413       .  A
C1970     Br1971   1.920       .  S
C1975      C1976   1.410       .  A
C1975      C1980   1.413       .  A
C1975     Br1982   1.919       .  S
C1976      C1977   1.409       .  A
C1977      C1978   1.414       .  A
C1977     Br1984   1.924       .  S
C1978      C1979   1.408       .  A
C1978     Br1983   1.902       .  S
C1979      C1980   1.407       .  A
C1980     Br1981   1.911       .  S
