geometry optimzed in LAMMPS
_audit_creation_date              2020-12-01 
_audit_creation_method            'lammps2cif' 
_symmetry_space_group_name_H-M    'P1' 
_symmetry_Int_Tables_number       1 
_symmetry_cell_setting            triclinic 
loop_ 
_symmetry_equiv_pos_as_xyz 
  x,y,z 
_cell_length_a                    32.29925352 
_cell_length_b                    31.962376864010025 
_cell_length_c                    41.60993903259699 
_cell_angle_alpha                 89.88511402862466 
_cell_angle_beta                  90.41984296273984 
_cell_angle_gamma                 121.5829039189309 
loop_ 
_atom_site_label 
_atom_site_type_symbol 
_atom_site_fract_x 
_atom_site_fract_y 
_atom_site_fract_z 
_atom_site_charge 
C1          C  0.32204672  0.15008237  0.84649517     0.86600
C2          C  0.27133002  0.12015432  0.86210631    -0.53700
C3          C  0.27229945  0.12023902  0.89501163     0.09500
C4          C  0.32387488  0.14841705  0.90927429     0.20400
C5          C  0.34671157  0.20082383  0.86219209    -0.54400
C6          C  0.34850778  0.20024820  0.89475427     0.09600
C7          C  0.34913967  0.12611755  0.86084383    -0.53900
C8          C  0.34945585  0.12426985  0.89362491     0.10200
H9          H  0.23757956  0.10035707  0.84872355     0.14700
H10         H  0.32448285  0.14910884  0.93590874     0.00400
H11         H  0.36077496  0.23447659  0.84848599     0.15000
H12         H  0.36632979  0.11151760  0.84641567     0.14800
C13         C  0.33646157  0.16472627  0.70424008     0.86600
C14         C  0.36058159  0.21773422  0.69178319    -0.53700
C15         C  0.36297998  0.22226842  0.65910061     0.09500
C16         C  0.33894533  0.17213537  0.64169340     0.20400
C17         C  0.28598870  0.13749281  0.68783448    -0.54400
C18         C  0.28706359  0.14281932  0.65527029     0.09600
C19         C  0.36209766  0.14150229  0.68750941    -0.53900
C20         C  0.36479831  0.14658531  0.65485844     0.10200
H21         H  0.37213923  0.24835679  0.70799652     0.14700
H22         H  0.33916571  0.17414785  0.61511255     0.00400
H23         H  0.25248682  0.11404086  0.70060547     0.15000
H24         H  0.37575196  0.12142587  0.70014003     0.14800
C25         C  0.15985661  0.32579255  0.20331003     0.86600
C26         C  0.12863665  0.27527760  0.18694259    -0.53700
C27         C  0.13084515  0.27706070  0.15412417     0.09500
C28         C  0.16202238  0.32933543  0.14047241     0.20400
C29         C  0.21069968  0.34749950  0.18908005    -0.54400
C30         C  0.21231521  0.35100576  0.15650729     0.09600
C31         C  0.13931287  0.35579109  0.18811590    -0.53900
C32         C  0.14118685  0.35831440  0.15533673     0.10200
H33         H  0.10702349  0.24105673  0.19968723     0.14700
H34         H  0.16251633  0.32982892  0.11380946     0.00400
H35         H  0.24302159  0.35960038  0.20376729     0.15000
H36         H  0.12255824  0.37182265  0.20185967     0.14800
C37         C  0.16976048  0.34443661  0.34594696     0.86600
C38         C  0.22038895  0.37558922  0.36147292    -0.53700
C39         C  0.22052420  0.37984079  0.39421259     0.09500
C40         C  0.16922892  0.35103840  0.40869229     0.20400
C41         C  0.14664457  0.29460648  0.36384852    -0.54400
C42         C  0.14739178  0.29824753  0.39647663     0.09600
C43         C  0.13976585  0.36589382  0.35837771    -0.53900
C44         C  0.14018733  0.37051327  0.39112767     0.10200
H45         H  0.25354729  0.39215000  0.34748829     0.14700
H46         H  0.16873739  0.35301983  0.43529386     0.00400
H47         H  0.12891200  0.25884654  0.35244827     0.15000
H48         H  0.11856920  0.37449555  0.34251688     0.14800
Zn49       Zn  0.05866848  0.02256307  0.03973232     1.49700
Zn50       Zn  0.98950771  0.98742079  0.97720351     1.49400
Zn51       Zn  0.45765458  0.41889432  0.04027006     1.49100
Zn52       Zn  0.45951837  0.02012285  0.04153622     1.49500
O53         O  0.99133445  0.98747252  0.02437520    -1.84000
O54         O  0.10481704  0.04502606  0.00253696    -0.74700
O55         O  0.45316842  0.41725411  0.95981954    -0.74500
O56         O  0.00226212  0.40682288  0.06699115    -0.74000
O57         O  0.05726141  0.02309182  0.95911830    -0.74700
O58         O  0.07138229  0.47895380  0.06777903    -0.74300
O59         O  0.43145429  0.37062897  0.00359019    -0.74900
O60         O  0.40220103  0.47408719  0.06896369    -0.74300
O61         O  0.45634186  0.02143799  0.96116961    -0.75000
O62         O  0.40072880  0.40389622  0.06770520    -0.74400
O63         O  0.43568164  0.04460711  0.00538213    -0.74900
O64         O  0.00526328  0.07929153  0.06846209    -0.74800
O65         O  0.07506888  0.08244881  0.06600560    -0.74600
C66         C  0.09918027  0.04348547  0.97215896     0.77200
C67         C  0.43208963  0.37518873  0.97319812     0.77700
C68         C  0.04600979  0.43420236  0.07649941     0.76700
C69         C  0.38311098  0.42919966  0.07698725     0.77000
C70         C  0.43727544  0.04285583  0.97489952     0.78200
C71         C  0.05013985  0.10002036  0.07594683     0.77200
Zn72       Zn  0.46566209  0.43657808  0.50971851     1.49700
Zn73       Zn  0.50452543  0.50592170  0.57215436     1.49400
Zn74       Zn  0.06841463  0.04073822  0.50682378     1.49100
Zn75       Zn  0.46939047  0.03895932  0.51126026     1.49500
O76         O  0.50201073  0.50500015  0.52509172    -1.84000
O77         O  0.43837131  0.38884954  0.54653085    -0.74700
O78         O  0.07506943  0.04160241  0.58747730    -0.74500
O79         O  0.07673212  0.49393259  0.47878383    -0.74000
O80         O  0.46814376  0.43682162  0.58950891    -0.74700
O81         O  0.00697914  0.42263885  0.48289044    -0.74300
O82         O  0.11851027  0.06331581  0.54261258    -0.74900
O83         O  0.01533772  0.10191834  0.48506911    -0.74300
O84         O  0.47164623  0.03962355  0.59140629    -0.75000
O85         O  0.08261453  0.10047466  0.47993018    -0.74400
O86         O  0.44587270  0.06088169  0.54834050    -0.74900
O87         O  0.41187778  0.49463709  0.48386482    -0.74800
O88         O  0.40952993  0.42403030  0.48136794    -0.74600
C89         C  0.44282945  0.39429696  0.57686358     0.77200
C90         C  0.11587598  0.06105488  0.57316186     0.77700
C91         C  0.05001304  0.44829512  0.47216647     0.76700
C92         C  0.05782712  0.12027091  0.47384309     0.77000
C93         C  0.44936613  0.05867958  0.57866176     0.78200
C94         C  0.39266989  0.45079642  0.47364206     0.77200
C95         C  0.30144989  0.39130495  0.40507354    -0.05700
C96         C  0.26632236  0.40268302  0.41382117     0.00200
C97         C  0.27402256  0.43032937  0.44243683    -0.08300
C98         C  0.31450399  0.44264284  0.46174895    -0.05700
C99         C  0.34907478  0.43112168  0.45298783     0.00200
C100        C  0.34283168  0.40508613  0.42413010    -0.08200
C101        C  0.37954182  0.39204162  0.41335209     0.62100
H102        H  0.29531607  0.36955133  0.38368716     0.12800
H103        H  0.31988818  0.46281442  0.48390153     0.12800
C104        C  0.24275927  0.44977834  0.45374641     0.62400
F105        F  0.36895497  0.37134374  0.38292948    -0.22800
F106        F  0.37941915  0.35847377  0.43442760    -0.20100
F107        F  0.42552404  0.43384895  0.41259008    -0.19800
F108        F  0.21556348  0.42273730  0.47983597    -0.19900
F109        F  0.21236390  0.44834822  0.43016960    -0.20200
F110        F  0.27196683  0.49846112  0.46297725    -0.22900
C111        C  0.08451393  0.36135531  0.43491317    -0.05700
C112        C  0.11343389  0.38973136  0.40904736     0.00200
C113        C  0.12020345  0.43703459  0.40379793    -0.08300
C114        C  0.09792914  0.45369013  0.42481889    -0.05700
C115        C  0.06952968  0.42554705  0.45074495     0.00200
C116        C  0.06236311  0.37830515  0.45595243    -0.08200
C117        C  0.03313954  0.34655673  0.48418167     0.62100
H118        H  0.07980949  0.32559601  0.43874708     0.12800
H119        H  0.10245385  0.48938497  0.42111703     0.12800
C120        C  0.15166950  0.47126613  0.37710516     0.62400
F121        F  0.03640709  0.30521449  0.48715475    -0.22800
F122        F  0.98466133  0.33107168  0.48000438    -0.20100
F123        F  0.05025824  0.37310626  0.51247356    -0.19800
F124        F  0.12930101  0.45292683  0.34779125    -0.19900
F125        F  0.19681752  0.47655226  0.37751575    -0.20200
F126        F  0.15906578  0.51783527  0.38031056    -0.22900
C127        C  0.13021752  0.19448166  0.45127282    -0.05700
C128        C  0.07928160  0.16588626  0.45379252     0.00200
C129        C  0.05094053  0.18168030  0.43719154    -0.08300
C130        C  0.07498027  0.22558535  0.41932105    -0.05700
C131        C  0.12565042  0.25413805  0.41748264     0.00200
C132        C  0.15390941  0.23838088  0.43348612    -0.08200
C133        C  0.20889488  0.26813077  0.43224480     0.62100
H134        H  0.15171879  0.18267046  0.46396442     0.12800
H135        H  0.05431952  0.23829268  0.40647432     0.12800
C136        C  0.99566445  0.15262360  0.43752929     0.62400
F137        F  0.22933014  0.24397485  0.44664732    -0.22800
F138        F  0.22563401  0.31183092  0.44841209    -0.20100
F139        F  0.22415215  0.27740201  0.40066292    -0.19800
F140        F  0.97945944  0.15367502  0.46801764    -0.19900
F141        F  0.47432464  0.10261330  0.42892989    -0.20200
F142        F  0.97638426  0.17185495  0.41656023    -0.22900
C143        C  0.17461737  0.37273855  0.25465666    -0.05700
C144        C  0.16317266  0.32801171  0.24032481     0.00200
C145        C  0.16583073  0.29336802  0.26058607    -0.08300
C146        C  0.16708482  0.29980947  0.29421600    -0.05700
C147        C  0.17205553  0.34212811  0.30881597     0.00200
C148        C  0.18192159  0.38169515  0.28782850    -0.08200
C149        C  0.20231300  0.43493484  0.29734174     0.62100
H150        H  0.18134408  0.40316088  0.23946176     0.12800
H151        H  0.16725910  0.27224308  0.30898647     0.12800
C152        C  0.16937787  0.25025622  0.24870623     0.62400
F153        F  0.24270781  0.46497868  0.27880328    -0.22800
F154        F  0.21715528  0.44525257  0.32875383    -0.20100
F155        F  0.16771410  0.44710024  0.29146965    -0.19800
F156        F  0.19193683  0.25927373  0.21928416    -0.19900
F157        F  0.12341154  0.20860941  0.24691437    -0.20200
F158        F  0.19690095  0.24087708  0.26983523    -0.22900
C159        C  0.04683423  0.16946946  0.09956316    -0.05700
C160        C  0.07297428  0.14566933  0.09617784     0.00200
C161        C  0.11892630  0.16609445  0.11213310    -0.08300
C162        C  0.13597216  0.20881651  0.13095841    -0.05700
C163        C  0.10967420  0.23216212  0.13387937     0.00200
C164        C  0.06457092  0.21252073  0.11786334    -0.08200
C165        C  0.03583888  0.23760818  0.11942335     0.62100
H166        H  0.01240203  0.15467775  0.08709894     0.12800
H167        H  0.17055097  0.22493505  0.14347112     0.12800
C168        C  0.15026275  0.14361722  0.10978961     0.62400
F169        F  0.99071833  0.21017669  0.10473110    -0.22800
F170        F  0.06135625  0.28214537  0.10378396    -0.20100
F171        F  0.02863112  0.24494673  0.15111984    -0.19800
F172        F  0.16503914  0.14585033  0.07838511    -0.19900
F173        F  0.12428076  0.09529143  0.11995689    -0.20200
F174        F  0.19172413  0.16827427  0.12874468    -0.22900
C175        C  0.25812100  0.34312120  0.11272784    -0.05700
C176        C  0.25793099  0.37204513  0.13795543     0.00200
C177        C  0.30007926  0.41926423  0.14376768    -0.08300
C178        C  0.34042638  0.43515188  0.12379811    -0.05700
C179        C  0.34009345  0.40676560  0.09813005     0.00200
C180        C  0.29849326  0.35950876  0.09266073    -0.08200
C181        C  0.29604454  0.32692470  0.06540324     0.62100
H182        H  0.22602432  0.30705574  0.10888859     0.12800
H183        H  0.37273998  0.47104831  0.12799693     0.12800
C184        C  0.30572438  0.45579376  0.16947571     0.62400
F185        F  0.25043350  0.28483592  0.06234367    -0.22800
F186        F  0.32909582  0.31262565  0.07108927    -0.20100
F187        F  0.30663166  0.35244340  0.03677186    -0.19800
F188        F  0.33975621  0.46053491  0.19189051    -0.19900
F189        F  0.26355052  0.44330658  0.18535785    -0.20200
F190        F  0.32259395  0.00109944  0.15542564    -0.22900
C191        C  0.06887234  0.36220908  0.14051420    -0.05700
C192        C  0.11859268  0.38078648  0.13616208     0.00200
C193        C  0.14468626  0.41908850  0.11369660    -0.08300
C194        C  0.11915474  0.43459992  0.09463207    -0.05700
C195        C  0.06887909  0.41416356  0.09764963     0.00200
C196        C  0.04316476  0.37767833  0.12143093    -0.08200
C197        C  0.48914034  0.35431218  0.12746906     0.62100
H198        H  0.04988229  0.33406429  0.15848462     0.12800
H199        H  0.13856575  0.46304754  0.07688118     0.12800
C200        C  0.19955518  0.44617916  0.11126546     0.62400
F201        F  0.47351132  0.32448459  0.15438347    -0.22800
F202        F  0.46304327  0.32577769  0.10131128    -0.20100
F203        F  0.47900618  0.39089504  0.13207832    -0.19800
F204        F  0.21389084  0.41578770  0.09890410    -0.19900
F205        F  0.21958538  0.46238149  0.14140601    -0.20200
F206        F  0.21785500  0.48692183  0.09150715    -0.22900
C207        C  0.36865594  0.07446531  0.63737402    -0.05700
C208        C  0.38685065  0.12503590  0.63442559     0.00200
C209        C  0.42676937  0.15370585  0.61371193    -0.08300
C210        C  0.44591080  0.13029597  0.59601152    -0.05700
C211        C  0.42785065  0.08003491  0.59913391     0.00200
C212        C  0.38865668  0.05137595  0.62009793    -0.08200
C213        C  0.36754552  0.49661793  0.62336318     0.62100
H214        H  0.33845775  0.05312159  0.65341834     0.12800
H215        H  0.47579808  0.15128047  0.57966652     0.12800
C216        C  0.45116827  0.20902682  0.61139421     0.62400
F217        F  0.32767267  0.47500503  0.64346024    -0.22800
F218        F  0.40217670  0.48814111  0.63604848    -0.20100
F219        F  0.35286039  0.47431622  0.59353820    -0.19800
F220        F  0.46292680  0.22902574  0.64181114    -0.19900
F221        F  0.42068501  0.22126430  0.59647002    -0.20200
F222        F  0.49374157  0.22994937  0.59390690    -0.22900
C223        C  0.35626579  0.26815852  0.61347076    -0.05700
C224        C  0.38240658  0.26965673  0.64112068     0.00200
C225        C  0.42702937  0.31410886  0.64847846    -0.08300
C226        C  0.44451006  0.35340680  0.62670339    -0.05700
C227        C  0.41974119  0.35061550  0.59823409     0.00200
C228        C  0.37407919  0.30755641  0.59171996    -0.08200
C229        C  0.34370437  0.30292487  0.56231364     0.62100
H230        H  0.32149419  0.23510015  0.60864467     0.12800
H231        H  0.47851309  0.38725097  0.63176490     0.12800
C232        C  0.45661209  0.32243070  0.67902025     0.62400
F233        F  0.29764205  0.26114799  0.56345936    -0.22800
F234        F  0.36603350  0.30016222  0.53486247    -0.20100
F235        F  0.33838356  0.34308449  0.56036307    -0.19800
F236        F  0.46132160  0.28295139  0.68553333    -0.19900
F237        F  0.43444243  0.33050997  0.70448938    -0.20200
F238        F  0.50325047  0.36306381  0.67657127    -0.22900
C239        C  0.23968150  0.09467755  0.60767861    -0.05700
C240        C  0.24264325  0.12228788  0.63472845     0.00200
C241        C  0.20510978  0.13203950  0.64030815    -0.08300
C242        C  0.16437892  0.11071781  0.61969629    -0.05700
C243        C  0.16103729  0.08256676  0.59287821     0.00200
C244        C  0.19982994  0.07516337  0.58623035    -0.08200
C245        C  0.19911646  0.04624872  0.55707321     0.62100
H246        H  0.26917725  0.08858604  0.60345030     0.12800
H247        H  0.13476215  0.11655026  0.62416312     0.12800
C248        C  0.20826672  0.16634755  0.66682466     0.62400
F249        F  0.23835210  0.03987228  0.55697815    -0.22800
F250        F  0.20117620  0.07107313  0.52930070    -0.20100
F251        F  0.15711717  0.50037295  0.55676910    -0.19800
F252        F  0.25385518  0.20871202  0.66731016    -0.19900
F253        F  0.19907724  0.14325953  0.69626639    -0.20200
F254        F  0.17456477  0.18018966  0.66226364    -0.22900
C255        C  0.36635472  0.16211078  0.79449553    -0.05700
C256        C  0.32418298  0.15497242  0.80960453     0.00200
C257        C  0.29164332  0.16208771  0.79027946    -0.08300
C258        C  0.29655236  0.16323135  0.75661604    -0.05700
C259        C  0.33547042  0.16340464  0.74125145     0.00200
C260        C  0.37416408  0.16916809  0.76128788    -0.08200
C261        C  0.42515860  0.18469445  0.75026674     0.62100
H262        H  0.39593148  0.16583400  0.80905435     0.12800
H263        H  0.27037524  0.16631256  0.74210008     0.12800
C264        C  0.25257936  0.17060982  0.80326032     0.62400
F265        F  0.45934567  0.21746612  0.77210828    -0.22800
F266        F  0.43709375  0.20835455  0.72113092    -0.20100
F267        F  0.42938244  0.14388431  0.74861068    -0.19800
F268        F  0.26467596  0.19329120  0.83295237    -0.19900
F269        F  0.20882208  0.12639440  0.80509532    -0.20200
F270        F  0.24614061  0.20116509  0.78292695    -0.22900
C271        C  0.39164495  0.03996597  0.92627752    -0.05700
C272        C  0.41555100  0.06486694  0.95461156     0.00200
C273        C  0.41927614  0.11001216  0.96200306    -0.08300
C274        C  0.39815743  0.12800177  0.94075280    -0.05700
C275        C  0.37285767  0.10243575  0.91279959     0.00200
C276        C  0.36926517  0.05702883  0.90537082    -0.08200
C277        C  0.34414872  0.02602510  0.87554969     0.62100
H278        H  0.39017609  0.00610461  0.92062337     0.12800
H279        H  0.40150588  0.16284904  0.94590404     0.12800
C280        C  0.44672104  0.14016423  0.99148010     0.62400
F281        F  0.37678657  0.54277010  0.85035706    -0.22800
F282        F  0.30349541  0.02713080  0.86672284    -0.20100
F283        F  0.32875954  0.97719111  0.88080813    -0.19800
F284        F  0.99373625  0.14883756  0.99113587    -0.19900
F285        F  0.42261798  0.11554776  0.01907374    -0.20200
F286        F  0.45068328  0.18545226  0.99178052    -0.22900
C287        C  0.34114025  0.25154576  0.93557010    -0.05700
C288        C  0.37107189  0.24568164  0.91428439     0.00200
C289        C  0.42117597  0.28238160  0.91238120    -0.08300
C290        C  0.43925401  0.32475192  0.93151266    -0.05700
C291        C  0.40936996  0.33055368  0.95293324     0.01600
C292        C  0.35948172  0.29352325  0.95506993    -0.08200
C293        C  0.32574279  0.29846125  0.97763234     0.62100
H294        H  0.30312471  0.22282907  0.93673135     0.12800
H295        H  0.47726271  0.35345969  0.93034102     0.12800
C296        C  0.45595360  0.27644457  0.89123396     0.62400
F297        F  0.27786253  0.26058147  0.97384933    -0.22800
F298        F  0.32808537  0.34230077  0.97189758    -0.20100
F299        F  0.33961770  0.29747425  0.00890947    -0.19800
F300        F  0.44761153  0.28163198  0.85929360    -0.19900
F301        F  0.44978258  0.23067241  0.89590266    -0.20200
F302        F  0.00395156  0.31121764  0.89770164    -0.22900
C303        C  0.19804782  0.11900246  0.91121082    -0.05700
C304        C  0.22758587  0.09902512  0.91489278     0.00200
C305        C  0.21414323  0.06049238  0.93735485    -0.08300
C306        C  0.17190104  0.04387459  0.95552019    -0.05700
C307        C  0.14255514  0.06370259  0.95173666     0.00200
C308        C  0.15560656  0.10207716  0.92946566    -0.08200
C309        C  0.12593356  0.12618686  0.92603963     0.62100
H310        H  0.20896809  0.14857734  0.89415102     0.12800
H311        H  0.16104187  0.01469554  0.97290033     0.12800
C312        C  0.24254954  0.03525635  0.94156275     0.62400
F313        F  0.14732661  0.16569861  0.90517160    -0.22800
F314        F  0.12174236  0.14309042  0.95569553    -0.20100
F315        F  0.08008255  0.09259290  0.91429528    -0.19800
F316        F  0.28684909  0.06672383  0.95595929    -0.19900
F317        F  0.24933664  0.02058257  0.91201350    -0.20200
F318        F  0.21831713  0.99379460  0.96064933    -0.22900
C319        C  0.32215580  0.65009074  0.84643503     0.86600
C320        C  0.27144168  0.62018279  0.86205840    -0.53700
C321        C  0.27241648  0.62029960  0.89496437     0.09500
C322        C  0.32400005  0.64848207  0.90921639     0.20400
C323        C  0.34683400  0.70084780  0.86211187    -0.54400
C324        C  0.34864024  0.70030025  0.89467502     0.09600
C325        C  0.34925496  0.62614126  0.86079767    -0.53900
C326        C  0.34957463  0.62431693  0.89358146     0.10200
H327        H  0.23768757  0.60036208  0.84868212     0.14700
H328        H  0.32461396  0.64919737  0.93585044     0.00400
H329        H  0.36089719  0.73448847  0.84839229     0.15000
H330        H  0.36645095  0.61154094  0.84637563     0.14800
C331        C  0.33655782  0.66472273  0.70416541     0.86600
C332        C  0.36068150  0.71773854  0.69172067    -0.53700
C333        C  0.36309507  0.72229081  0.65903879     0.09500
C334        C  0.33907198  0.67217137  0.64162024     0.20400
C335        C  0.28609190  0.63749535  0.68774628    -0.54400
C336        C  0.28718900  0.64284423  0.65518327     0.09600
C337        C  0.36220818  0.64151408  0.68743292    -0.53900
C338        C  0.36492338  0.64662163  0.65478119     0.10200
H339        H  0.37223099  0.74835045  0.70794169     0.14700
H340        H  0.33929414  0.67419655  0.61504065     0.00400
H341        H  0.25257651  0.61404453  0.70050454     0.15000
H342        H  0.37589243  0.62146529  0.70007047     0.14800
C343        C  0.15986449  0.82580272  0.20327734     0.86600
C344        C  0.12865001  0.77529296  0.18690427    -0.53700
C345        C  0.13086848  0.77708368  0.15408689     0.09500
C346        C  0.16203952  0.82935997  0.14043890     0.20400
C347        C  0.21070911  0.84750891  0.18904818    -0.54400
C348        C  0.21232884  0.85101768  0.15647447     0.09600
C349        C  0.13932167  0.85580325  0.18808462    -0.53900
C350        C  0.14119962  0.85833422  0.15530620     0.10200
H351        H  0.10702860  0.74106895  0.19963966     0.14700
H352        H  0.16253695  0.82986330  0.11377567     0.00400
H353        H  0.24302572  0.85958735  0.20373649     0.15000
H354        H  0.12255987  0.87182723  0.20182862     0.14800
C355        C  0.16979724  0.84446689  0.34591294     0.86600
C356        C  0.22041650  0.87563002  0.36145228    -0.53700
C357        C  0.22053398  0.87988139  0.39419204     0.09500
C358        C  0.16922829  0.85106143  0.40865686     0.20400
C359        C  0.14668099  0.79463736  0.36380994    -0.54400
C360        C  0.14740121  0.79827527  0.39643626     0.09600
C361        C  0.13977988  0.86590641  0.35833314    -0.53900
C362        C  0.14018069  0.87051957  0.39108329     0.10200
H363        H  0.25358181  0.89220728  0.34747449     0.14700
H364        H  0.16872325  0.85303820  0.43525847     0.00400
H365        H  0.12895931  0.75887887  0.35240661     0.15000
H366        H  0.11857637  0.87448879  0.34246564     0.14800
Zn367      Zn  0.05874463  0.52254347  0.03972750     1.49700
Zn368      Zn  0.98956823  0.48741272  0.97722010     1.49400
Zn369      Zn  0.45768443  0.91888222  0.04022065     1.49100
Zn370      Zn  0.45956248  0.52015797  0.04155107     1.49500
O371        O  0.99139335  0.48747365  0.02439375    -1.84000
O372        O  0.10490216  0.54498393  0.00251743    -0.74700
O373        O  0.45317276  0.91728199  0.95976880    -0.74500
O374        O  0.00228891  0.90685939  0.06695593    -0.74000
O375        O  0.05733375  0.52309383  0.95910942    -0.74700
O376        O  0.07137096  0.97901741  0.06778436    -0.74300
O377        O  0.43159121  0.87063707  0.00352533    -0.74900
O378        O  0.40217163  0.97398648  0.06892978    -0.74300
O379        O  0.45637875  0.52144186  0.96119107    -0.75000
O380        O  0.40069796  0.90379271  0.06762952    -0.74400
O381        O  0.43575231  0.54466128  0.00539430    -0.74900
O382        O  0.00538620  0.57930737  0.06845402    -0.74800
O383        O  0.07518794  0.58245105  0.06600612    -0.74600
C384        C  0.09926177  0.54346509  0.97213865     0.77200
C385        C  0.43218164  0.87521251  0.97313547     0.77700
C386        C  0.04602348  0.93425638  0.07648583     0.76700
C387        C  0.38308085  0.92908932  0.07693038     0.77000
C388        C  0.43733542  0.54288916  0.97491269     0.78200
C389        C  0.05026236  0.60003386  0.07593785     0.77200
Zn390      Zn  0.46569665  0.93670617  0.50968818     1.49700
Zn391      Zn  0.50454540  0.00597289  0.57218991     1.49400
Zn392      Zn  0.06846729  0.54083971  0.50677388     1.49100
Zn393      Zn  0.46936607  0.53883912  0.51118612     1.49500
O394        O  0.50203978  0.00509322  0.52511866    -1.84000
O395        O  0.43847710  0.88893014  0.54648709    -0.74700
O396        O  0.07525913  0.54179305  0.58740877    -0.74500
O397        O  0.07671186  0.99385976  0.47881076    -0.74000
O398        O  0.46825664  0.93684993  0.58949146    -0.74700
O399        O  0.00695642  0.92255784  0.48287698    -0.74300
O400        O  0.11863791  0.56349020  0.54251566    -0.74900
O401        O  0.01537263  0.60204651  0.48508655    -0.74300
O402        O  0.47174901  0.53970341  0.59131542    -0.75000
O403        O  0.08258585  0.60051015  0.47984996    -0.74400
O404        O  0.44591127  0.56086704  0.54823559    -0.74900
O405        O  0.41191868  0.99483101  0.48388619    -0.74800
O406        O  0.40953910  0.92420904  0.48137727    -0.74600
C407        C  0.44296175  0.89434082  0.57682304     0.77200
C408        C  0.11604391  0.56124775  0.57306640     0.77700
C409        C  0.04999807  0.94822864  0.47217039     0.76700
C410        C  0.05781845  0.62034003  0.47380531     0.77000
C411        C  0.44946691  0.55874522  0.57855686     0.78200
C412        C  0.39270067  0.95099493  0.47365103     0.77200
C413        C  0.30151123  0.89146591  0.40506414    -0.05700
C414        C  0.26633157  0.90277040  0.41381134     0.00200
C415        C  0.27401223  0.93043263  0.44241859    -0.08300
C416        C  0.31451151  0.94280354  0.46173298    -0.05700
C417        C  0.34912380  0.93133750  0.45297579     0.00200
C418        C  0.34292705  0.90533947  0.42410750    -0.08200
C419        C  0.37973853  0.89245416  0.41329470     0.62100
H420        H  0.29540469  0.86971125  0.38368235     0.12800
H421        H  0.31987352  0.96297299  0.48388314     0.12800
C422        C  0.24271664  0.94985203  0.45371244     0.62400
F423        F  0.36922076  0.87185263  0.38284447    -0.22800
F424        F  0.37969698  0.85887495  0.43431901    -0.20100
F425        F  0.42567133  0.93433650  0.41257467    -0.19800
F426        F  0.21555533  0.92283986  0.47982083    -0.19900
F427        F  0.21228704  0.94835080  0.43013560    -0.20200
F428        F  0.27189520  0.99855453  0.46290820    -0.22900
C429        C  0.08451888  0.86132987  0.43488318    -0.05700
C430        C  0.11339384  0.88970160  0.40900076     0.00200
C431        C  0.12012471  0.93698823  0.40375107    -0.08300
C432        C  0.09785405  0.95363127  0.42478604    -0.05700
C433        C  0.06951765  0.92550025  0.45073581     0.00200
C434        C  0.06240042  0.87828014  0.45594929    -0.08200
C435        C  0.03329602  0.84657370  0.48422611     0.62100
H436        H  0.07984574  0.82558466  0.43871916     0.12800
H437        H  0.10234320  0.98931059  0.42108314     0.12800
C438        C  0.15156436  0.97122205  0.37705150     0.62400
F439        F  0.03660658  0.80525530  0.48718978    -0.22800
F440        F  0.98479476  0.83104951  0.48013599    -0.20100
F441        F  0.05051538  0.87318194  0.51248969    -0.19800
F442        F  0.12919510  0.95285956  0.34774092    -0.19900
F443        F  0.19673032  0.97654829  0.37746082    -0.20200
F444        F  0.15891955  0.01777527  0.38024994    -0.22900
C445        C  0.13019048  0.69451452  0.45122718    -0.05700
C446        C  0.07925777  0.66593502  0.45374799     0.00200
C447        C  0.05091636  0.68173132  0.43715085    -0.08300
C448        C  0.07496371  0.72562617  0.41927070    -0.05700
C449        C  0.12563722  0.75416736  0.41743603     0.00200
C450        C  0.15388860  0.73840918  0.43344392    -0.08200
C451        C  0.20887466  0.76815815  0.43221633     0.62100
H452        H  0.15168583  0.68269947  0.46392234     0.12800
H453        H  0.05430957  0.73833876  0.40642114     0.12800
C454        C  0.99563864  0.65269759  0.43751161     0.62400
F455        F  0.22929802  0.74399578  0.44662617    -0.22800
F456        F  0.22560617  0.81185590  0.44838554    -0.20100
F457        F  0.22415205  0.77743743  0.40063890    -0.19800
F458        F  0.97946891  0.65379955  0.46800238    -0.19900
F459        F  0.47436420  0.60230814  0.42867979    -0.20200
F460        F  0.97635649  0.67191988  0.41653593    -0.22900
C461        C  0.17462120  0.87274422  0.25462509    -0.05700
C462        C  0.16317757  0.82801642  0.24029395     0.00200
C463        C  0.16586049  0.79338327  0.26055383    -0.08300
C464        C  0.16715742  0.79984661  0.29418456    -0.05700
C465        C  0.17210710  0.84215713  0.30878318     0.00200
C466        C  0.18194147  0.88171066  0.28779500    -0.08200
C467        C  0.20231235  0.93494655  0.29730799     0.62100
H468        H  0.18133320  0.90316216  0.23943053     0.12800
H469        H  0.16735424  0.77229393  0.30895923     0.12800
C470        C  0.16935638  0.75024521  0.24866297     0.62400
F471        F  0.24269191  0.96500284  0.27876103    -0.22800
F472        F  0.21716978  0.94527408  0.32871767    -0.20100
F473        F  0.16769165  0.94708516  0.29144666    -0.19800
F474        F  0.19199126  0.75930275  0.21926589    -0.19900
F475        F  0.12336424  0.70864616  0.24680894    -0.20200
F476        F  0.19677400  0.74075010  0.26981118    -0.22900
C477        C  0.04691728  0.66946353  0.09953967    -0.05700
C478        C  0.07308871  0.64569493  0.09615583     0.00200
C479        C  0.11904781  0.66615541  0.11210567    -0.08300
C480        C  0.13607154  0.70888410  0.13092059    -0.05700
C481        C  0.10973549  0.73219035  0.13384340     0.00200
C482        C  0.06462193  0.71250840  0.11783866    -0.08200
C483        C  0.03584030  0.73754221  0.11941570     0.62100
H484        H  0.01247748  0.65464581  0.08708123     0.12800
H485        H  0.17065579  0.72503162  0.14342965     0.12800
C486        C  0.15040731  0.64370319  0.10977365     0.62400
F487        F  0.99072340  0.71008177  0.10472314    -0.22800
F488        F  0.06131897  0.78209323  0.10378909    -0.20100
F489        F  0.02862086  0.74484576  0.15111726    -0.19800
F490        F  0.16517099  0.64590940  0.07836883    -0.19900
F491        F  0.12445090  0.59538802  0.11996319    -0.20200
F492        F  0.19187618  0.66839877  0.12871901    -0.22900
C493        C  0.25808116  0.84307755  0.11267692    -0.05700
C494        C  0.25793813  0.87200866  0.13791940     0.00200
C495        C  0.30013006  0.91918803  0.14374666    -0.08300
C496        C  0.34046730  0.93503304  0.12377681    -0.05700
C497        C  0.34007967  0.90665506  0.09808512     0.00200
C498        C  0.29844237  0.85943058  0.09260301    -0.08200
C499        C  0.29594538  0.82684790  0.06532822     0.62100
H500        H  0.22595486  0.80703689  0.10882823     0.12800
H501        H  0.37281483  0.97090037  0.12798787     0.12800
C502        C  0.30583335  0.95572250  0.16946877     0.62400
F503        F  0.25031362  0.78478553  0.06227173    -0.22800
F504        F  0.32896765  0.81250383  0.07098857    -0.20100
F505        F  0.30653667  0.85238445  0.03670349    -0.19800
F506        F  0.33981353  0.96036116  0.19189182    -0.19900
F507        F  0.26366851  0.94330854  0.18533565    -0.20200
F508        F  0.32238549  0.50113922  0.15541259    -0.22900
C509        C  0.06887152  0.86219372  0.14046000    -0.05700
C510        C  0.11860400  0.88081045  0.13613537     0.00200
C511        C  0.14471483  0.91916877  0.11370961    -0.08300
C512        C  0.11919211  0.93470676  0.09465552    -0.05700
C513        C  0.06890216  0.91422436  0.09763855     0.00200
C514        C  0.04317027  0.87767881  0.12138338    -0.08200
C515        C  0.48916236  0.85431476  0.12740808     0.62100
H516        H  0.04986892  0.83400693  0.15840390     0.12800
H517        H  0.13861885  0.96320108  0.07693529     0.12800
C518        C  0.19958737  0.94626411  0.11130117     0.62400
F519        F  0.47351584  0.82442317  0.15429224    -0.22800
F520        F  0.46310520  0.82583168  0.10122317    -0.20100
F521        F  0.47899461  0.89086653  0.13205537    -0.19800
F522        F  0.21392838  0.91589287  0.09890909    -0.19900
F523        F  0.21959470  0.96239886  0.14145560    -0.20200
F524        F  0.21790637  0.98704945  0.09158085    -0.22900
C525        C  0.36881429  0.57453250  0.63729464    -0.05700
C526        C  0.38698197  0.62509532  0.63433736     0.00200
C527        C  0.42685449  0.65376844  0.61358773    -0.08300
C528        C  0.44599756  0.63036682  0.59588006    -0.05700
C529        C  0.42796750  0.58011496  0.59902051     0.00200
C530        C  0.38880514  0.55145320  0.62000230    -0.08200
C531        C  0.36737711  0.99653872  0.62346203     0.62100
H532        H  0.33864112  0.55318490  0.65335606     0.12800
H533        H  0.47585377  0.65134685  0.57951253     0.12800
C534        C  0.45119693  0.70908173  0.61122731     0.62400
F535        F  0.32749874  0.97494076  0.64355576    -0.22800
F536        F  0.40199375  0.98804641  0.63615475    -0.20100
F537        F  0.35269291  0.97423572  0.59363793    -0.19800
F538        F  0.46293540  0.72914037  0.64162794    -0.19900
F539        F  0.42067941  0.72124467  0.59626953    -0.20200
F540        F  0.49377446  0.73001702  0.59374384    -0.22900
C541        C  0.35638976  0.76820479  0.61342200    -0.05700
C542        C  0.38253602  0.76968330  0.64106377     0.00200
C543        C  0.42718064  0.81411462  0.64841379    -0.08300
C544        C  0.44469382  0.85340119  0.62662652    -0.05700
C545        C  0.41990087  0.85063816  0.59817432     0.00200
C546        C  0.37420680  0.80761205  0.59167892    -0.08200
C547        C  0.34378924  0.80304476  0.56231217     0.62100
H548        H  0.32160176  0.73516217  0.60860365     0.12800
H549        H  0.47872207  0.88722529  0.63167456     0.12800
C550        C  0.45673283  0.82243123  0.67896996     0.62400
F551        F  0.29771824  0.76128251  0.56346690    -0.22800
F552        F  0.36605896  0.80031299  0.53482038    -0.20100
F553        F  0.33849478  0.84322619  0.56043319    -0.19800
F554        F  0.46145501  0.78295993  0.68548461    -0.19900
F555        F  0.43452143  0.83047917  0.70442726    -0.20200
F556        F  0.50336472  0.86308133  0.67654834    -0.22900
C557        C  0.23980363  0.59474203  0.60757960    -0.05700
C558        C  0.24279052  0.62236779  0.63462824     0.00200
C559        C  0.20531496  0.63220804  0.64018909    -0.08300
C560        C  0.16460449  0.61095404  0.61956281    -0.05700
C561        C  0.16122260  0.58276459  0.59275805     0.00200
C562        C  0.19996322  0.57527654  0.58612386    -0.08200
C563        C  0.19919746  0.54631745  0.55697649     0.62100
H564        H  0.26926444  0.58859289  0.60336202     0.12800
H565        H  0.13502348  0.61684631  0.62401809     0.12800
C566        C  0.20849844  0.66650948  0.66671806     0.62400
F567        F  0.23838253  0.53985999  0.55689183    -0.22800
F568        F  0.20129879  0.57114580  0.52919620    -0.20100
F569        F  0.15708022  0.00026991  0.55685929    -0.19800
F570        F  0.25412265  0.70882475  0.66724333    -0.19900
F571        F  0.19922628  0.64336815  0.69614479    -0.20200
F572        F  0.17486778  0.68044248  0.66214572    -0.22900
C573        C  0.36645027  0.66209540  0.79442496    -0.05700
C574        C  0.32427383  0.65494076  0.80953853     0.00200
C575        C  0.29171440  0.66202273  0.79021004    -0.08300
C576        C  0.29660964  0.66314652  0.75654531    -0.05700
C577        C  0.33555733  0.66338172  0.74117839     0.00200
C578        C  0.37426724  0.66919041  0.76121749    -0.08200
C579        C  0.42530587  0.68485172  0.75021829     0.62100
H580        H  0.39604019  0.66584147  0.80898162     0.12800
H581        H  0.27041161  0.66619474  0.74203202     0.12800
C582        C  0.25267120  0.67057614  0.80319071     0.62400
F583        F  0.45941980  0.71783657  0.77200768    -0.22800
F584        F  0.43716877  0.70832909  0.72102133    -0.20100
F585        F  0.42972536  0.64415010  0.74870995    -0.19800
F586        F  0.26482039  0.69332891  0.83285940    -0.19900
F587        F  0.20891435  0.62636921  0.80507496    -0.20200
F588        F  0.24620273  0.70108628  0.78283223    -0.22900
C589        C  0.39174704  0.54001607  0.92627237    -0.05700
C590        C  0.41562378  0.56490695  0.95461552     0.00200
C591        C  0.41932990  0.61004467  0.96200583    -0.08300
C592        C  0.39824040  0.62804479  0.94073663    -0.05700
C593        C  0.37296731  0.60248549  0.91277322     0.00200
C594        C  0.36938010  0.55707845  0.90535395    -0.08200
C595        C  0.34428873  0.52607277  0.87552936     0.62100
H596        H  0.39028707  0.50615854  0.92062038     0.12800
H597        H  0.40158803  0.66289285  0.94588241     0.12800
C598        C  0.44671910  0.64017538  0.99150365     0.62400
F599        F  0.37661586  0.04273569  0.85035979    -0.22800
F600        F  0.30365158  0.52718807  0.86667062    -0.20100
F601        F  0.32887711  0.47723629  0.88080084    -0.19800
F602        F  0.99373344  0.64881727  0.99118646    -0.19900
F603        F  0.42257839  0.61552538  0.01907963    -0.20200
F604        F  0.45065510  0.68545117  0.99181131    -0.22900
C605        C  0.34126021  0.75161072  0.93546565    -0.05700
C606        C  0.37120311  0.74574369  0.91419314     0.00200
C607        C  0.42131205  0.78243669  0.91230377    -0.08300
C608        C  0.43938733  0.82479415  0.93145016    -0.05700
C609        C  0.40948726  0.83059390  0.95285847     0.01600
C610        C  0.35959239  0.79358156  0.95496827    -0.08200
C611        C  0.32583433  0.79854309  0.97749864     0.62100
H612        H  0.30323953  0.72290323  0.93661060     0.12800
H613        H  0.47740072  0.85349425  0.93029717     0.12800
C614        C  0.45609191  0.77650395  0.89115487     0.62400
F615        F  0.27796486  0.76063074  0.97373370    -0.22800
F616        F  0.32814489  0.84235312  0.97170242    -0.20100
F617        F  0.33971264  0.79764523  0.00878816    -0.19800
F618        F  0.44772649  0.78165786  0.85921323    -0.19900
F619        F  0.44994489  0.73074446  0.89583841    -0.20200
F620        F  0.00400982  0.81132960  0.89758914    -0.22900
C621        C  0.19811072  0.61899329  0.91115486    -0.05700
C622        C  0.22769910  0.59907558  0.91485510     0.00200
C623        C  0.21428613  0.56056697  0.93733254    -0.08300
C624        C  0.17204376  0.54393366  0.95550614    -0.05700
C625        C  0.14264224  0.56369749  0.95170350     0.00200
C626        C  0.15565048  0.60203050  0.92940163    -0.08200
C627        C  0.12589385  0.62604127  0.92591658     0.62100
H628        H  0.20899499  0.64853874  0.89407640     0.12800
H629        H  0.16122490  0.51478465  0.97290421     0.12800
C630        C  0.24272391  0.53536560  0.94154439     0.62400
F631        F  0.14727499  0.66556054  0.90505391    -0.22800
F632        F  0.12157612  0.64290721  0.95555269    -0.20100
F633        F  0.08009740  0.59237834  0.91412478    -0.19800
F634        F  0.28699416  0.56684219  0.95597311    -0.19900
F635        F  0.24957473  0.52074738  0.91199360    -0.20200
F636        F  0.21848632  0.49387269  0.96060257    -0.22900
C637        C  0.82163765  0.15049924  0.84622430     0.86600
C638        C  0.77101215  0.12047252  0.86195570    -0.53700
C639        C  0.77213294  0.12053265  0.89485949     0.09500
C640        C  0.82380106  0.14878713  0.90900983     0.20400
C641        C  0.84629786  0.20122249  0.86195245    -0.54400
C642        C  0.84831146  0.20063608  0.89450767     0.09600
C643        C  0.84888828  0.12661551  0.86044143    -0.53900
C644        C  0.84940842  0.12474879  0.89322397     0.10200
H645        H  0.73719943  0.10049012  0.84866927     0.14700
H646        H  0.82453587  0.14942638  0.93564768     0.00400
H647        H  0.86031612  0.23489322  0.84827012     0.15000
H648        H  0.86611170  0.11219092  0.84589591     0.14800
C649        C  0.83648288  0.16632331  0.70394546     0.86600
C650        C  0.86047535  0.21933725  0.69150224    -0.53700
C651        C  0.86295387  0.22392878  0.65881230     0.09500
C652        C  0.83906230  0.17379466  0.64138844     0.20400
C653        C  0.78605026  0.13895788  0.68749043    -0.54400
C654        C  0.78715209  0.14428987  0.65492847     0.09600
C655        C  0.86230508  0.14327576  0.68723561    -0.53900
C656        C  0.86507657  0.14840926  0.65458377     0.10200
H657        H  0.87194118  0.24991704  0.70773632     0.14700
H658        H  0.83929770  0.17580199  0.61480755     0.00400
H659        H  0.75254168  0.11535602  0.70021899     0.15000
H660        H  0.87615519  0.12339529  0.69991099     0.14800
C661        C  0.66055482  0.32544841  0.20343990     0.86600
C662        C  0.62930341  0.27502749  0.18696393    -0.53700
C663        C  0.63147748  0.27695455  0.15415839     0.09500
C664        C  0.66253149  0.32930512  0.14061478     0.20400
C665        C  0.71136886  0.34730643  0.18913066    -0.54400
C666        C  0.71287775  0.35097503  0.15656924     0.09600
C667        C  0.63994578  0.35552722  0.18846055    -0.53900
C668        C  0.64164723  0.35814957  0.15565766     0.10200
H669        H  0.60769723  0.24073710  0.19964075     0.14700
H670        H  0.66295781  0.32990279  0.11395325     0.00400
H671        H  0.74374755  0.35938274  0.20375250     0.15000
H672        H  0.62333973  0.37155616  0.20236772     0.14800
C673        C  0.66995723  0.34217382  0.34597999     0.86600
C674        C  0.72038978  0.37127238  0.36193882    -0.53700
C675        C  0.71991259  0.37561548  0.39454858     0.09500
C676        C  0.66847022  0.34788530  0.40864961     0.20400
C677        C  0.64479368  0.29191732  0.36343828    -0.54400
C678        C  0.64511871  0.29506601  0.39607085     0.09600
C679        C  0.64141905  0.36534824  0.35837034    -0.53900
C680        C  0.64108253  0.36930663  0.39119905     0.10200
H681        H  0.75389501  0.38689084  0.34837643     0.14700
H682        H  0.66774204  0.34874016  0.43518333     0.00400
H683        H  0.62657571  0.25637244  0.35171183     0.15000
H684        H  0.62134196  0.37512866  0.34229329     0.14800
Zn685      Zn  0.55865837  0.02190163  0.03997033     1.49700
Zn686      Zn  0.48934932  0.98677486  0.97755399     1.49400
Zn687      Zn  0.95796988  0.41949501  0.03984966     1.49100
Zn688      Zn  0.95939276  0.02049854  0.04117929     1.49500
O689        O  0.49125924  0.98688765  0.02472318    -1.84000
O690        O  0.60478775  0.04423471  0.00269771    -0.74700
O691        O  0.95364832  0.41790620  0.95937039    -0.74500
O692        O  0.50193357  0.40604092  0.06739953    -0.74000
O693        O  0.55707780  0.02224845  0.95935877    -0.74700
O694        O  0.57114700  0.47810907  0.06802440    -0.74300
O695        O  0.93215211  0.37132792  0.00315369    -0.74900
O696        O  0.90223463  0.47427330  0.06865674    -0.74300
O697        O  0.95640177  0.02199192  0.96082139    -0.75000
O698        O  0.90096694  0.40419254  0.06729883    -0.74400
O699        O  0.93550997  0.04498794  0.00501724    -0.74900
O700        O  0.50554349  0.07897070  0.06873727    -0.74800
O701        O  0.57526304  0.08195214  0.06620980    -0.74600
C702        C  0.59905410  0.04265011  0.97232348     0.77200
C703        C  0.93276262  0.37585329  0.97276243     0.77700
C704        C  0.54575308  0.43338261  0.07681103     0.76700
C705        C  0.88328735  0.42939787  0.07667066     0.77000
C706        C  0.93722843  0.04332065  0.97453239     0.78200
C707        C  0.55044311  0.09965920  0.07614914     0.77200
Zn708      Zn  0.96584827  0.43934167  0.50981317     1.49700
Zn709      Zn  0.00524170  0.50807426  0.57207604     1.49400
Zn710      Zn  0.56757471  0.03890338  0.50689937     1.49100
Zn711      Zn  0.97083446  0.04213845  0.51097013     1.49500
O712        O  0.00288433  0.50766558  0.52501650    -1.84000
O713        O  0.93875816  0.39115991  0.54640762    -0.74700
O714        O  0.57463340  0.04039518  0.58757451    -0.74500
O715        O  0.57690049  0.49240085  0.47914199    -0.74000
O716        O  0.96862346  0.43887136  0.58944611    -0.74700
O717        O  0.50795806  0.42037790  0.48371833    -0.74300
O718        O  0.61789532  0.06268226  0.54262461    -0.74900
O719        O  0.51273959  0.09853444  0.48488817    -0.74300
O720        O  0.97253446  0.04191907  0.59124448    -0.75000
O721        O  0.58038253  0.09780458  0.47977840    -0.74400
O722        O  0.94752528  0.06405804  0.54817980    -0.74900
O723        O  0.91329063  0.49907365  0.48308032    -0.74800
O724        O  0.90961282  0.42784248  0.48237377    -0.74600
C725        C  0.94326115  0.39639584  0.57674347     0.77200
C726        C  0.61541431  0.06045626  0.57318139     0.77700
C727        C  0.55090257  0.44657599  0.47293830     0.76700
C728        C  0.55519683  0.11713227  0.47358456     0.77000
C729        C  0.95067430  0.06142886  0.57850543     0.78200
C730        C  0.89338105  0.45474405  0.47365937     0.77200
C731        C  0.79893562  0.38488904  0.40810175    -0.05700
C732        C  0.76534498  0.39918279  0.41428373     0.00200
C733        C  0.77561697  0.43393070  0.43904507    -0.08300
C734        C  0.81778673  0.45068717  0.45775486    -0.05700
C735        C  0.84993648  0.43437348  0.45259731     0.00200
C736        C  0.84073986  0.40112164  0.42712153    -0.08200
C737        C  0.87465676  0.38286143  0.41967059     0.62100
H738        H  0.79116407  0.35914979  0.38877459     0.12800
H739        H  0.82558255  0.47638369  0.47717245     0.12800
C740        C  0.74452179  0.45586332  0.44506339     0.62400
F741        F  0.86174470  0.35588059  0.39144544    -0.22800
F742        F  0.87302098  0.35282387  0.44423166    -0.20100
F743        F  0.92171595  0.42228789  0.41629612    -0.19800
F744        F  0.70338393  0.42343190  0.46197924    -0.19900
F745        F  0.73157732  0.46719109  0.41625399    -0.20200
F746        F  0.76939727  0.49893103  0.46273775    -0.22900
C747        C  0.58863310  0.36173535  0.43677902    -0.05700
C748        C  0.61434097  0.38848668  0.40941124     0.00200
C749        C  0.61692557  0.43362933  0.40259873    -0.08300
C750        C  0.59549303  0.45053646  0.42418325    -0.05700
C751        C  0.57089266  0.42422218  0.45167455     0.00200
C752        C  0.56687444  0.37869657  0.45810848    -0.08200
C753        C  0.54137185  0.34888941  0.48787651     0.62100
H754        H  0.58576359  0.32698213  0.44149216     0.12800
H755        H  0.59691494  0.48458433  0.41940722     0.12800
C756        C  0.64088323  0.46450475  0.37291393     0.62400
F757        F  0.54729596  0.30925743  0.49160721    -0.22800
F758        F  0.49210822  0.33090502  0.48561170    -0.20100
F759        F  0.56019396  0.37812158  0.51498741    -0.19800
F760        F  0.61136820  0.44232269  0.34642969    -0.19900
F761        F  0.68563428  0.47035333  0.36807634    -0.20200
F762        F  0.64832728  0.51115970  0.37562583    -0.22900
C763        C  0.62720058  0.19049758  0.45028809    -0.05700
C764        C  0.57638049  0.16260386  0.45341803     0.00200
C765        C  0.54814226  0.17903164  0.43738017    -0.08300
C766        C  0.57228507  0.22287468  0.41937259    -0.05700
C767        C  0.62295007  0.25069817  0.41691734     0.00200
C768        C  0.65095280  0.23421710  0.43242498    -0.08200
C769        C  0.70583758  0.26309464  0.43069824     0.62100
H770        H  0.64866471  0.17831316  0.46260774     0.12800
H771        H  0.55174591  0.23609782  0.40695233     0.12800
C772        C  0.49291076  0.15072002  0.43848367     0.62400
F773        F  0.72589519  0.23809567  0.44437423    -0.22800
F774        F  0.72350349  0.30660999  0.44727950    -0.20100
F775        F  0.72035589  0.27246924  0.39898786    -0.19800
F776        F  0.47780777  0.15176372  0.46933141    -0.19900
F777        F  0.97804281  0.10455737  0.42830922    -0.20200
F778        F  0.47353880  0.17068667  0.41822714    -0.22900
C779        C  0.67593398  0.37203687  0.25505141    -0.05700
C780        C  0.66398579  0.32729865  0.24044390     0.00200
C781        C  0.66622366  0.29213717  0.26044309    -0.08300
C782        C  0.66721257  0.29801832  0.29409288    -0.05700
C783        C  0.67293788  0.34047279  0.30891262     0.00200
C784        C  0.68390113  0.38065801  0.28823572    -0.08200
C785        C  0.70610111  0.43398667  0.29835464     0.62100
H786        H  0.68268623  0.40264443  0.24004035     0.12800
H787        H  0.66666093  0.26991941  0.30874506     0.12800
C788        C  0.66970299  0.24909217  0.24833841     0.62400
F789        F  0.74377899  0.46405540  0.27783856    -0.22800
F790        F  0.72570285  0.44394418  0.32874711    -0.20100
F791        F  0.67127029  0.44658750  0.29625998    -0.19800
F792        F  0.69200892  0.25817396  0.21882070    -0.19900
F793        F  0.62373926  0.20741205  0.24668087    -0.20200
F794        F  0.69746200  0.23974631  0.26927228    -0.22900
C795        C  0.54743212  0.16940757  0.09956611    -0.05700
C796        C  0.57342608  0.14543442  0.09627899     0.00200
C797        C  0.61937499  0.16581718  0.11223106    -0.08300
C798        C  0.63652196  0.20861613  0.13100317    -0.05700
C799        C  0.61034329  0.23210622  0.13384930     0.00200
C800        C  0.56528519  0.21254897  0.11779368    -0.08200
C801        C  0.53669808  0.23779299  0.11928641     0.62100
H802        H  0.51301095  0.15466295  0.08709474     0.12800
H803        H  0.67107454  0.22466524  0.14354218     0.12800
C804        C  0.65059773  0.14320909  0.10993052     0.62400
F805        F  0.49161502  0.21049205  0.10453229    -0.22800
F806        F  0.56238256  0.28234191  0.10367239    -0.20100
F807        F  0.52942974  0.24513857  0.15096801    -0.19800
F808        F  0.66532679  0.14531918  0.07852628    -0.19900
F809        F  0.62452839  0.09491163  0.12014856    -0.20200
F810        F  0.69208165  0.16783457  0.12886706    -0.22900
C811        C  0.75862671  0.34306975  0.11278165    -0.05700
C812        C  0.75842899  0.37206425  0.13795173     0.00200
C813        C  0.80048243  0.41939582  0.14362980    -0.08300
C814        C  0.84074152  0.43533973  0.12356855    -0.05700
C815        C  0.84040131  0.40688958  0.09793542     0.00200
C816        C  0.79890477  0.35950492  0.09262103    -0.08200
C817        C  0.79643105  0.32684371  0.06541212     0.62100
H818        H  0.72659360  0.30692238  0.10905074     0.12800
H819        H  0.87297177  0.47133827  0.12765749     0.12800
C820        C  0.80606669  0.45601931  0.16924140     0.62400
F821        F  0.75087690  0.28464199  0.06248897    -0.22800
F822        F  0.82964690  0.31274381  0.07105098    -0.20100
F823        F  0.80676084  0.35220958  0.03673383    -0.19800
F824        F  0.84054374  0.46137974  0.19149101    -0.19900
F825        F  0.76398489  0.44323869  0.18535154    -0.20200
F826        F  0.82219484  0.00109538  0.15497992    -0.22900
C827        C  0.56910376  0.36180653  0.14095167    -0.05700
C828        C  0.61885589  0.38053651  0.13656374     0.00200
C829        C  0.64474141  0.41869070  0.11396257    -0.08300
C830        C  0.61901691  0.43392856  0.09485393    -0.05700
C831        C  0.56873411  0.41338965  0.09793365     0.00200
C832        C  0.54319107  0.37697846  0.12179023    -0.08200
C833        C  0.98915639  0.35527815  0.12714554     0.62100
H834        H  0.55024985  0.33375925  0.15899796     0.12800
H835        H  0.63829806  0.46227446  0.07702188     0.12800
C836        C  0.69961036  0.44597320  0.11144042     0.62400
F837        F  0.97344716  0.32549721  0.15408178    -0.22800
F838        F  0.96291986  0.32676945  0.10101649    -0.20100
F839        F  0.97928364  0.39204664  0.13175279    -0.19800
F840        F  0.71410138  0.41570269  0.09909245    -0.19900
F841        F  0.71972107  0.46235131  0.14154258    -0.20200
F842        F  0.71768149  0.48662531  0.09161660    -0.22900
C843        C  0.86948384  0.07659728  0.63711222    -0.05700
C844        C  0.88743574  0.12712361  0.63418962     0.00200
C845        C  0.92740399  0.15599047  0.61354573    -0.08300
C846        C  0.94686249  0.13282080  0.59591805    -0.05700
C847        C  0.92902533  0.08260557  0.59900815     0.00200
C848        C  0.88975583  0.05374117  0.61987361    -0.08200
C849        C  0.86879324  0.49897747  0.62309108     0.62100
H850        H  0.83924680  0.05509652  0.65309762     0.12800
H851        H  0.97679127  0.15394897  0.57962924     0.12800
C852        C  0.95149307  0.21127181  0.61119112     0.62400
F853        F  0.82856831  0.47704554  0.64287608    -0.22800
F854        F  0.90336442  0.49064592  0.63607064    -0.20100
F855        F  0.85470613  0.47686184  0.59317907    -0.19800
F856        F  0.96315519  0.23131825  0.64159397    -0.19900
F857        F  0.92080143  0.22320672  0.59624254    -0.20200
F858        F  0.99407191  0.23241460  0.59369745    -0.22900
C859        C  0.85657753  0.26997595  0.61310065    -0.05700
C860        C  0.88252379  0.27138615  0.64083602     0.00200
C861        C  0.92711191  0.31583950  0.64829034    -0.08300
C862        C  0.94474891  0.35520298  0.62653720    -0.05700
C863        C  0.92012121  0.35255089  0.59802591     0.00200
C864        C  0.87448719  0.30948682  0.59141484    -0.08200
C865        C  0.84420686  0.30498118  0.56198493     0.62100
H866        H  0.82185192  0.23691621  0.60817493     0.12800
H867        H  0.97872940  0.38902666  0.63167797     0.12800
C868        C  0.95645862  0.32412986  0.67894406     0.62400
F869        F  0.79812355  0.26322460  0.56305687    -0.22800
F870        F  0.86660582  0.30230020  0.53454415    -0.20100
F871        F  0.83892231  0.34516648  0.56008115    -0.19800
F872        F  0.96120233  0.28468974  0.68551832    -0.19900
F873        F  0.93403363  0.33208457  0.70430905    -0.20200
F874        F  0.00308487  0.36482342  0.67665511    -0.22900
C875        C  0.73970692  0.09547996  0.60751903    -0.05700
C876        C  0.74268317  0.12341141  0.63438835     0.00200
C877        C  0.70497611  0.13293808  0.63989149    -0.08300
C878        C  0.66408045  0.11109897  0.61940698    -0.05700
C879        C  0.66072637  0.08260705  0.59278592     0.00200
C880        C  0.69965803  0.07540158  0.58620875    -0.08200
C881        C  0.69886700  0.04611622  0.55724858     0.62100
H882        H  0.76932269  0.08955848  0.60333305     0.12800
H883        H  0.63433654  0.11675236  0.62382334     0.12800
C884        C  0.70812230  0.16752073  0.66620177     0.62400
F885        F  0.73810050  0.03973896  0.55729556    -0.22800
F886        F  0.70083407  0.07059869  0.52932552    -0.20100
F887        F  0.65674573  0.50003799  0.55718449    -0.19800
F888        F  0.75359276  0.21004629  0.66641415    -0.19900
F889        F  0.69931108  0.14488597  0.69578701    -0.20200
F890        F  0.67416865  0.18101231  0.66157182    -0.22900
C891        C  0.86610459  0.16316529  0.79421202    -0.05700
C892        C  0.82371253  0.15548381  0.80931474     0.00200
C893        C  0.79105802  0.16248352  0.79001912    -0.08300
C894        C  0.79622162  0.16415216  0.75635262    -0.05700
C895        C  0.83540561  0.16486826  0.74097254     0.00200
C896        C  0.87409380  0.17069758  0.76103941    -0.08200
C897        C  0.92531735  0.18688530  0.75016850     0.62100
H898        H  0.89574566  0.16702943  0.80877426     0.12800
H899        H  0.76997938  0.16713485  0.74185021     0.12800
C900        C  0.75160383  0.17033710  0.80308246     0.62400
F901        F  0.95910368  0.22038253  0.77189332    -0.22800
F902        F  0.93705167  0.20998537  0.72084841    -0.20100
F903        F  0.93037363  0.14655111  0.74901701    -0.19800
F904        F  0.76379608  0.19333394  0.83267569    -0.19900
F905        F  0.70824174  0.12577911  0.80517208    -0.20200
F906        F  0.74430011  0.20026550  0.78270676    -0.22900
C907        C  0.89164093  0.04044534  0.92588806    -0.05700
C908        C  0.91557037  0.06536608  0.95420788     0.00200
C909        C  0.91954838  0.11065339  0.96149302    -0.08300
C910        C  0.89841001  0.12863675  0.94024677    -0.05700
C911        C  0.87306895  0.10305407  0.91230073     0.00200
C912        C  0.86951238  0.05765685  0.90486821    -0.08200
C913        C  0.84484994  0.02694622  0.87486585     0.62100
H914        H  0.89010602  0.00653630  0.92029478     0.12800
H915        H  0.90178765  0.16349859  0.94539278     0.12800
C916        C  0.94734013  0.14097264  0.99083299     0.62400
F917        F  0.87742103  0.54428180  0.84981503    -0.22800
F918        F  0.80387167  0.02750712  0.86614178    -0.20100
F919        F  0.83012083  0.97820126  0.87974403    -0.19800
F920        F  0.49323267  0.14833599  0.99191044    -0.19900
F921        F  0.92339514  0.11668022  0.01854580    -0.20200
F922        F  0.95161796  0.18640657  0.99099998    -0.22900
C923        C  0.84144403  0.25218659  0.93537235    -0.05700
C924        C  0.87115998  0.24610070  0.91402636     0.00200
C925        C  0.92131018  0.28265365  0.91201494    -0.08300
C926        C  0.93963884  0.32512851  0.93108881    -0.05700
C927        C  0.90994095  0.33115579  0.95255038     0.01600
C928        C  0.86003282  0.29424805  0.95481242    -0.08200
C929        C  0.82654352  0.29940235  0.97748541     0.62100
H930        H  0.80339888  0.22357682  0.93662937     0.12800
H931        H  0.97767538  0.35373434  0.92983009     0.12800
C932        C  0.95585616  0.27645907  0.89079053     0.62400
F933        F  0.77857613  0.26169778  0.97378745    -0.22800
F934        F  0.82911024  0.34336907  0.97182204    -0.20100
F935        F  0.84053567  0.29831921  0.00871737    -0.19800
F936        F  0.94738896  0.28159933  0.85886660    -0.19900
F937        F  0.94949997  0.23061355  0.89547348    -0.20200
F938        F  0.50396650  0.31133987  0.89825259    -0.22900
C939        C  0.69778438  0.11891930  0.91142231    -0.05700
C940        C  0.72744817  0.09904129  0.91483147     0.00200
C941        C  0.71407809  0.06023354  0.93705333    -0.08300
C942        C  0.67183441  0.04329559  0.95530078    -0.05700
C943        C  0.64238448  0.06305835  0.95180448     0.00200
C944        C  0.65533056  0.10166039  0.92973664    -0.08200
C945        C  0.62550506  0.12564286  0.92658869     0.62100
H946        H  0.70860585  0.14866764  0.89452199     0.12800
H947        H  0.66106542  0.01392739  0.97251510     0.12800
C948        C  0.74259524  0.03506643  0.94089748     0.62400
F949        F  0.64672591  0.16533155  0.90585935    -0.22800
F950        F  0.62133696  0.14224312  0.95636560    -0.20100
F951        F  0.57964983  0.09204157  0.91485167    -0.19800
F952        F  0.78696373  0.06649697  0.95522558    -0.19900
F953        F  0.74924267  0.02070520  0.91119144    -0.20200
F954        F  0.71855078  0.99342832  0.95984246    -0.22900
C955        C  0.82166861  0.65044283  0.84621384     0.86600
C956        C  0.77105097  0.62044809  0.86196298    -0.53700
C957        C  0.77218807  0.62055389  0.89486705     0.09500
C958        C  0.82386611  0.64881382  0.90900276     0.20400
C959        C  0.84634926  0.70118719  0.86191323    -0.54400
C960        C  0.84838303  0.70064489  0.89446927     0.09600
C961        C  0.84892388  0.62657247  0.86044956    -0.53900
C962        C  0.84945357  0.62474167  0.89323513     0.10200
H963        H  0.73723054  0.60044596  0.84868723     0.14700
H964        H  0.82461150  0.64948267  0.93564077     0.00400
H965        H  0.86035459  0.73483830  0.84821111     0.15000
H966        H  0.86613161  0.61211563  0.84591722     0.14800
C967        C  0.83642740  0.66622627  0.70391893     0.86600
C968        C  0.86037271  0.71923587  0.69147348    -0.53700
C969        C  0.86282759  0.72382091  0.65878221     0.09500
C970        C  0.83896834  0.67369148  0.64136074     0.20400
C971        C  0.78598522  0.63882647  0.68747569    -0.54400
C972        C  0.78707147  0.64414682  0.65491178     0.09600
C973        C  0.86227707  0.64321772  0.68719585    -0.53900
C974        C  0.86502986  0.64835417  0.65454437     0.10200
H975        H  0.87183169  0.74981527  0.70770686     0.14700
H976        H  0.83918547  0.67569657  0.61478054     0.00400
H977        H  0.75248297  0.61524124  0.70021511     0.15000
H978        H  0.87615565  0.62335550  0.69986030     0.14800
C979        C  0.66053783  0.82545062  0.20339513     0.86600
C980        C  0.62928492  0.77504573  0.18690614    -0.53700
C981        C  0.63147065  0.77699524  0.15410234     0.09500
C982        C  0.66254126  0.82935208  0.14057108     0.20400
C983        C  0.71135666  0.84730449  0.18909336    -0.54400
C984        C  0.71287783  0.85098929  0.15653193     0.09600
C985        C  0.63995162  0.85555371  0.18842449    -0.53900
C986        C  0.64167140  0.85820217  0.15562378     0.10200
H987        H  0.60767744  0.74074696  0.19957351     0.14700
H988        H  0.66297867  0.82997474  0.11390904     0.00400
H989        H  0.74372553  0.85934961  0.20371933     0.15000
H990        H  0.62334290  0.87157732  0.20233452     0.14800
C991        C  0.66984349  0.84206952  0.34594536     0.86600
C992        C  0.72027552  0.87114921  0.36190946    -0.53700
C993        C  0.71980935  0.87549590  0.39452495     0.09500
C994        C  0.66835063  0.84785334  0.40861518     0.20400
C995        C  0.64466451  0.79183022  0.36342419    -0.54400
C996        C  0.64498008  0.79501173  0.39606053     0.09600
C997        C  0.64132642  0.86528028  0.35830810    -0.53900
C998        C  0.64097870  0.86925821  0.39112864     0.10200
H999        H  0.75376996  0.88676320  0.34833642     0.14700
H1000       H  0.66762652  0.84887682  0.43514362     0.00400
H1001       H  0.62647143  0.75627722  0.35170898     0.15000
H1002       H  0.62126253  0.87506534  0.34222380     0.14800
Zn1003     Zn  0.55868420  0.52186588  0.03999879     1.49700
Zn1004     Zn  0.48938017  0.48677142  0.97758157     1.49400
Zn1005     Zn  0.95796694  0.91948673  0.03980449     1.49100
Zn1006     Zn  0.95946873  0.52051384  0.04120403     1.49500
O1007       O  0.49128144  0.48689118  0.02475176    -1.84000
O1008       O  0.60482336  0.54422765  0.00272194    -0.74700
O1009       O  0.95360928  0.91794050  0.95932012    -0.74500
O1010       O  0.50199194  0.90610684  0.06737620    -0.74000
O1011       O  0.55712143  0.52226505  0.95938044    -0.74700
O1012       O  0.57116758  0.97820558  0.06802090    -0.74300
O1013       O  0.93221320  0.87134309  0.00308950    -0.74900
O1014       O  0.90216492  0.97419718  0.06860182    -0.74300
O1015       O  0.95642976  0.52196499  0.96084223    -0.75000
O1016       O  0.90093167  0.90412879  0.06723884    -0.74400
O1017       O  0.93557675  0.54498980  0.00504279    -0.74900
O1018       O  0.50562292  0.57899445  0.06872535    -0.74800
O1019       O  0.57531755  0.58191477  0.06625804    -0.74600
C1020       C  0.59909836  0.54266769  0.97234672     0.77200
C1021       C  0.93278485  0.87588240  0.97270003     0.77700
C1022       C  0.54579802  0.93347753  0.07680530     0.76700
C1023       C  0.88323729  0.92932185  0.07661080     0.77000
C1024       C  0.93726715  0.54330285  0.97455755     0.78200
C1025       C  0.55051024  0.59965660  0.07616194     0.77200
Zn1026     Zn  0.96579135  0.93922062  0.50978444     1.49700
Zn1027     Zn  0.00507445  0.00791705  0.57207967     1.49400
Zn1028     Zn  0.56753727  0.53882653  0.50687439     1.49100
Zn1029     Zn  0.97093473  0.54226851  0.51097918     1.49500
O1030       O  0.00278871  0.00754416  0.52501687    -1.84000
O1031       O  0.93864505  0.89099898  0.54635083    -0.74700
O1032       O  0.57459794  0.54028884  0.58753611    -0.74500
O1033       O  0.57696877  0.99253407  0.47909881    -0.74000
O1034       O  0.96841530  0.93870249  0.58940054    -0.74700
O1035       O  0.50796938  0.92055844  0.48359918    -0.74300
O1036       O  0.61786628  0.56263779  0.54258901    -0.74900
O1037       O  0.51267090  0.59835783  0.48475836    -0.74300
O1038       O  0.97272729  0.54209715  0.59124403    -0.75000
O1039       O  0.58036235  0.59770967  0.47970967    -0.74400
O1040       O  0.94762547  0.56415333  0.54818389    -0.74900
O1041       O  0.91314247  0.99887041  0.48309525    -0.74800
O1042       O  0.90957241  0.92768189  0.48232657    -0.74600
C1043       C  0.94309140  0.89623138  0.57668773     0.77200
C1044       C  0.61537916  0.56037803  0.57314431     0.77700
C1045       C  0.55092849  0.94673058  0.47283602     0.76700
C1046       C  0.55514531  0.61699141  0.47347896     0.77000
C1047       C  0.95082531  0.56156476  0.57850658     0.78200
C1048       C  0.89328287  0.95454981  0.47365685     0.77200
C1049       C  0.79913129  0.88523300  0.40785471    -0.05700
C1050       C  0.76525863  0.89909133  0.41427647     0.00200
C1051       C  0.77511254  0.93311986  0.43946701    -0.08300
C1052       C  0.81725376  0.94980731  0.45817811    -0.05700
C1053       C  0.84980764  0.93413312  0.45263848     0.00200
C1054       C  0.84091692  0.90139771  0.42689334    -0.08200
C1055       C  0.87509061  0.88353044  0.41924340     0.62100
H1056       H  0.79156965  0.85980970  0.38835570     0.12800
H1057       H  0.82467487  0.97492736  0.47790948     0.12800
C1058       C  0.74337057  0.95403852  0.44633797     0.62400
F1059       F  0.86242650  0.85697461  0.39084816    -0.22800
F1060       F  0.87351679  0.85322392  0.44359411    -0.20100
F1061       F  0.92207999  0.92316896  0.41607863    -0.19800
F1062       F  0.70414893  0.92175226  0.46486407    -0.19900
F1063       F  0.72735658  0.96320167  0.41801974    -0.20200
F1064       F  0.76885542  0.99817577  0.46283802    -0.22900
C1065       C  0.58840242  0.86170337  0.43661685    -0.05700
C1066       C  0.61428341  0.88851163  0.40931634     0.00200
C1067       C  0.61716260  0.93381520  0.40258061    -0.08300
C1068       C  0.59573234  0.95075993  0.42414650    -0.05700
C1069       C  0.57089854  0.92435180  0.45156002     0.00200
C1070       C  0.56666469  0.87870731  0.45793190    -0.08200
C1071       C  0.54095609  0.84880804  0.48762750     0.62100
H1072       H  0.58538707  0.82687159  0.44128782     0.12800
H1073       H  0.59737460  0.98492931  0.41942754     0.12800
C1074       C  0.64158401  0.96489143  0.37303960     0.62400
F1075       F  0.54670184  0.80905940  0.49132505    -0.22800
F1076       F  0.49173241  0.83098274  0.48526586    -0.20100
F1077       F  0.55971979  0.87790689  0.51479913    -0.19800
F1078       F  0.61242219  0.94295390  0.34638086    -0.19900
F1079       F  0.68637846  0.97068221  0.36847030    -0.20200
F1080       F  0.64908480  0.01156328  0.37579364    -0.22900
C1081       C  0.62715021  0.69049001  0.45028513    -0.05700
C1082       C  0.57631567  0.66247274  0.45332153     0.00200
C1083       C  0.54804766  0.67882002  0.43723137    -0.08300
C1084       C  0.57217088  0.72270295  0.41926604    -0.05700
C1085       C  0.62284424  0.75065574  0.41691145     0.00200
C1086       C  0.65088683  0.73426521  0.43247182    -0.08200
C1087       C  0.70578933  0.76328107  0.43083956     0.62100
H1088       H  0.64863169  0.67836022  0.46264314     0.12800
H1089       H  0.55160791  0.73585822  0.40679914     0.12800
C1090       C  0.49280647  0.65038802  0.43823777     0.62400
F1091       F  0.72589937  0.73837877  0.44458844    -0.22800
F1092       F  0.72329909  0.80678135  0.44741138    -0.20100
F1093       F  0.72044303  0.77271359  0.39915539    -0.19800
F1094       F  0.47755373  0.65135799  0.46905143    -0.19900
F1095       F  0.97798056  0.60461289  0.42832019    -0.20200
F1096       F  0.47342886  0.67028849  0.41792707    -0.22900
C1097       C  0.67588026  0.87198076  0.25502139    -0.05700
C1098       C  0.66393633  0.82725898  0.24039884     0.00200
C1099       C  0.66613520  0.79206670  0.26038773    -0.08300
C1100       C  0.66706103  0.79789677  0.29404313    -0.05700
C1101       C  0.67282804  0.84036402  0.30887569     0.00200
C1102       C  0.68383547  0.88057240  0.28820627    -0.08200
C1103       C  0.70608410  0.93390628  0.29832379     0.62100
H1104       H  0.68266105  0.90260828  0.24002070     0.12800
H1105       H  0.66645103  0.76976037  0.30868741     0.12800
C1106       C  0.66970984  0.74908781  0.24826017     0.62400
F1107       F  0.74384345  0.96393164  0.27784858    -0.22800
F1108       F  0.72558451  0.94383232  0.32874141    -0.20100
F1109       F  0.67132167  0.94659001  0.29615367    -0.19800
F1110       F  0.69208679  0.75826563  0.21876229    -0.19900
F1111       F  0.62378085  0.70736851  0.24654238    -0.20200
F1112       F  0.69746167  0.73975338  0.26920780    -0.22900
C1113       C  0.54744916  0.66937837  0.09956560    -0.05700
C1114       C  0.57348552  0.64544866  0.09627254     0.00200
C1115       C  0.61945610  0.66588733  0.11220234    -0.08300
C1116       C  0.63659950  0.70871914  0.13093714    -0.05700
C1117       C  0.61037217  0.73215657  0.13379316     0.00200
C1118       C  0.56527293  0.71252126  0.11778339    -0.08200
C1119       C  0.53659941  0.73767180  0.11932488     0.62100
H1120       H  0.51300401  0.65458680  0.08711848     0.12800
H1121       H  0.67117182  0.72481757  0.14345616     0.12800
C1122       C  0.65069012  0.64328835  0.10993628     0.62400
F1123       F  0.49149518  0.71029961  0.10460706    -0.22800
F1124       F  0.56218503  0.78222857  0.10371012    -0.20100
F1125       F  0.52936584  0.74499089  0.15101983    -0.19800
F1126       F  0.66538980  0.64531457  0.07853370    -0.19900
F1127       F  0.62464013  0.59501943  0.12021163    -0.20200
F1128       F  0.69219167  0.66797366  0.12885209    -0.22900
C1129       C  0.75858716  0.84303659  0.11273677    -0.05700
C1130       C  0.75842553  0.87203931  0.13791642     0.00200
C1131       C  0.80050720  0.91934720  0.14360005    -0.08300
C1132       C  0.84075149  0.93526383  0.12353228    -0.05700
C1133       C  0.84037000  0.90681421  0.09788594     0.00200
C1134       C  0.79885292  0.85944819  0.09256811    -0.08200
C1135       C  0.79634804  0.82678585  0.06534964     0.62100
H1136       H  0.72653407  0.80690511  0.10900148     0.12800
H1137       H  0.87300236  0.97124733  0.12762327     0.12800
C1138       C  0.80613996  0.95598171  0.16921789     0.62400
F1139       F  0.75077804  0.78460518  0.06242572    -0.22800
F1140       F  0.82954034  0.81265177  0.07097695    -0.20100
F1141       F  0.80668906  0.85216371  0.03667535    -0.19800
F1142       F  0.84063742  0.96132805  0.19144566    -0.19900
F1143       F  0.76408468  0.94322711  0.18535265    -0.20200
F1144       F  0.82211746  0.50113214  0.15500301    -0.22900
C1145       C  0.56912702  0.86182831  0.14089897    -0.05700
C1146       C  0.61889125  0.88060665  0.13654197     0.00200
C1147       C  0.64480299  0.91883931  0.11399656    -0.08300
C1148       C  0.61909047  0.93410929  0.09490228    -0.05700
C1149       C  0.56879014  0.91350915  0.09793977     0.00200
C1150       C  0.54322505  0.87702680  0.12175299    -0.08200
C1151       C  0.98915015  0.85524049  0.12707297     0.62100
H1152       H  0.55025640  0.83371992  0.15890727     0.12800
H1153       H  0.63839166  0.96251466  0.07710898     0.12800
C1154       C  0.69967726  0.94613943  0.11151030     0.62400
F1155       F  0.97341124  0.82537557  0.15396916    -0.22800
F1156       F  0.96295231  0.82680487  0.10090967    -0.20100
F1157       F  0.97925662  0.89198466  0.13173194    -0.19800
F1158       F  0.71419137  0.91589711  0.09914368    -0.19900
F1159       F  0.71974462  0.96245497  0.14163071    -0.20200
F1160       F  0.71777014  0.98683223  0.09172177    -0.22900
C1161       C  0.86952963  0.57660569  0.63706934    -0.05700
C1162       C  0.88742493  0.62711938  0.63414260     0.00200
C1163       C  0.92737662  0.65602220  0.61349298    -0.08300
C1164       C  0.94692026  0.63290592  0.59589953    -0.05700
C1165       C  0.92914798  0.58270684  0.59900448     0.00200
C1166       C  0.88985719  0.55379887  0.61984120    -0.08200
C1167       C  0.86865456  0.99891620  0.62314767     0.62100
H1168       H  0.83929141  0.55507517  0.65304789     0.12800
H1169       H  0.97684455  0.65405718  0.57961196     0.12800
C1170       C  0.95133458  0.71128360  0.61107196     0.62400
F1171       F  0.82848746  0.97704421  0.64298492    -0.22800
F1172       F  0.90323077  0.99055692  0.63608381    -0.20100
F1173       F  0.85446647  0.97676245  0.59325213    -0.19800
F1174       F  0.96291274  0.73141597  0.64145132    -0.19900
F1175       F  0.92057074  0.72305777  0.59604948    -0.20200
F1176       F  0.99394210  0.73248507  0.59360636    -0.22900
C1177       C  0.85640538  0.76984007  0.61306895    -0.05700
C1178       C  0.88237291  0.77126515  0.64079865     0.00200
C1179       C  0.92696892  0.81571700  0.64823625    -0.08300
C1180       C  0.94460826  0.85505210  0.62646459    -0.05700
C1181       C  0.91995420  0.85239196  0.59796666     0.00200
C1182       C  0.87430052  0.80934383  0.59137742    -0.08200
C1183       C  0.84397706  0.80486572  0.56197790     0.62100
H1184       H  0.82167158  0.73678166  0.60815795     0.12800
H1185       H  0.97860355  0.88887035  0.63158598     0.12800
C1186       C  0.95630427  0.82405284  0.67890174     0.62400
F1187       F  0.79789415  0.76310950  0.56306378    -0.22800
F1188       F  0.86632914  0.80221026  0.53450498    -0.20100
F1189       F  0.83869590  0.84505665  0.56012288    -0.19800
F1190       F  0.96106829  0.78463559  0.68551543    -0.19900
F1191       F  0.93385196  0.83202266  0.70424233    -0.20200
F1192       F  0.00292336  0.86475824  0.67661170    -0.22900
C1193       C  0.73963883  0.59535087  0.60749697    -0.05700
C1194       C  0.74260407  0.62326493  0.63437437     0.00200
C1195       C  0.70490080  0.63279421  0.63987869    -0.08300
C1196       C  0.66402537  0.61099158  0.61937887    -0.05700
C1197       C  0.66068186  0.58251714  0.59275089     0.00200
C1198       C  0.69960090  0.57529229  0.58617919    -0.08200
C1199       C  0.69880335  0.54600468  0.55721798     0.62100
H1200       H  0.76925298  0.58942673  0.60331111     0.12800
H1201       H  0.63428193  0.61664566  0.62379684     0.12800
C1202       C  0.70800059  0.66729803  0.66622981     0.62400
F1203       F  0.73800997  0.53958445  0.55727809    -0.22800
F1204       F  0.70081217  0.57050943  0.52929640    -0.20100
F1205       F  0.65683260  0.00013201  0.55723037    -0.19800
F1206       F  0.75351252  0.70976848  0.66657049    -0.19900
F1207       F  0.69899185  0.64450752  0.69577110    -0.20200
F1208       F  0.67414838  0.68091352  0.66155579    -0.22900
C1209       C  0.86607055  0.66300749  0.79417865    -0.05700
C1210       C  0.82370831  0.65538005  0.80929754     0.00200
C1211       C  0.79106681  0.66241535  0.79000966    -0.08300
C1212       C  0.79621150  0.66408049  0.75634033    -0.05700
C1213       C  0.83537232  0.66477018  0.74094804     0.00200
C1214       C  0.87405428  0.67056126  0.76100522    -0.08200
C1215       C  0.92527939  0.68677177  0.75012398     0.62100
H1216       H  0.89570575  0.66683610  0.80872896     0.12800
H1217       H  0.76997169  0.66707512  0.74184272     0.12800
C1218       C  0.75163745  0.67029806  0.80308559     0.62400
F1219       F  0.95906475  0.72022942  0.77186613    -0.22800
F1220       F  0.93701027  0.70993126  0.72082327    -0.20100
F1221       F  0.93034197  0.64644397  0.74892364    -0.19800
F1222       F  0.76388466  0.69335030  0.83266022    -0.19900
F1223       F  0.70827670  0.62574780  0.80522038    -0.20200
F1224       F  0.74429900  0.70018998  0.78269735    -0.22900
C1225       C  0.89165141  0.54041644  0.92592333    -0.05700
C1226       C  0.91559134  0.56534075  0.95423949     0.00200
C1227       C  0.91955743  0.61062239  0.96152903    -0.08300
C1228       C  0.89842985  0.62861389  0.94027699    -0.05700
C1229       C  0.87308671  0.60303097  0.91232998     0.00200
C1230       C  0.86950645  0.55761881  0.90491014    -0.08200
C1231       C  0.84480794  0.52687673  0.87492558     0.62100
H1232       H  0.89011217  0.50650549  0.92032878     0.12800
H1233       H  0.90182049  0.66348288  0.94541780     0.12800
C1234       C  0.94732767  0.64092759  0.99087960     0.62400
F1235       F  0.87745165  0.04445391  0.84974915    -0.22800
F1236       F  0.80388567  0.52751794  0.86616409    -0.20100
F1237       F  0.82997553  0.47811546  0.87985545    -0.19800
F1238       F  0.49324000  0.64837212  0.99196586    -0.19900
F1239       F  0.92337790  0.61660861  0.01858512    -0.20200
F1240       F  0.95157935  0.68634909  0.99106164    -0.22900
C1241       C  0.84150119  0.75221309  0.93530636    -0.05700
C1242       C  0.87122347  0.74613279  0.91396392     0.00200
C1243       C  0.92136683  0.78270612  0.91193979    -0.08300
C1244       C  0.93968469  0.82518382  0.93101179    -0.05700
C1245       C  0.90997957  0.83119681  0.95247668     0.01600
C1246       C  0.86007558  0.79428006  0.95473758    -0.08200
C1247       C  0.82657221  0.79943660  0.97739566     0.62100
H1248       H  0.80345988  0.72359394  0.93656639     0.12800
H1249       H  0.97771717  0.85379964  0.92975169     0.12800
C1250       C  0.95591691  0.77652328  0.89071069     0.62400
F1251       F  0.77861984  0.76168146  0.97373058    -0.22800
F1252       F  0.82907547  0.84336068  0.97167909    -0.20100
F1253       F  0.84059910  0.79845169  0.00863298    -0.19800
F1254       F  0.94740255  0.78159842  0.85878489    -0.19900
F1255       F  0.94961368  0.73070477  0.89542291    -0.20200
F1256       F  0.50410428  0.81142248  0.89815617    -0.22900
C1257       C  0.69784761  0.61896360  0.91144668    -0.05700
C1258       C  0.72751025  0.59908271  0.91485144     0.00200
C1259       C  0.71413515  0.56027343  0.93707281    -0.08300
C1260       C  0.67189926  0.54334435  0.95532837    -0.05700
C1261       C  0.64244014  0.56309600  0.95182962     0.00200
C1262       C  0.65538475  0.60169478  0.92975700    -0.08200
C1263       C  0.62553375  0.62564619  0.92658553     0.62100
H1264       H  0.70866594  0.64870778  0.89454357     0.12800
H1265       H  0.66113446  0.51397866  0.97254390     0.12800
C1266       C  0.74263131  0.53508373  0.94089973     0.62400
F1267       F  0.64676866  0.66535344  0.90587115    -0.22800
F1268       F  0.62129503  0.64221084  0.95635703    -0.20100
F1269       F  0.57970779  0.59202843  0.91481317    -0.19800
F1270       F  0.78701587  0.56650215  0.95521218    -0.19900
F1271       F  0.74924016  0.52071013  0.91118717    -0.20200
F1272       F  0.71858662  0.49344884  0.95984746    -0.22900
loop_ 
_geom_bond_atom_site_label_1 
_geom_bond_atom_site_label_2 
_geom_bond_distance 
_geom_bond_site_symmetry_2 
_ccdc_geom_bond_type 
C1            C2   1.547       .  S
C1            C7   1.550       .  S
C1            C5   1.528       .  S
C1          C256   1.541       .  S
C2            H9   1.081       .  S
C2            C3   1.369       .  D
C3            C4   1.534       .  S
C3          C304   1.490       .  S
C4            C8   1.543       .  S
C4            C6   1.538       .  S
C4           H10   1.108       .  S
C5           H11   1.085       .  S
C5            C6   1.356       .  D
C6          C288   1.479       .  S
C7           H12   1.079       .  S
C7            C8   1.365       .  D
C8          C275   1.495       .  S
C13          C14   1.538       .  S
C13          C19   1.541       .  S
C13          C17   1.543       .  S
C13         C259   1.541       .  S
C14          H21   1.081       .  S
C14          C15   1.366       .  D
C15          C16   1.545       .  S
C15         C224   1.501       .  S
C16          C20   1.539       .  S
C16          C18   1.540       .  S
C16          H22   1.108       .  S
C17          H23   1.083       .  S
C17          C18   1.364       .  D
C18         C240   1.489       .  S
C19          H24   1.084       .  S
C19          C20   1.366       .  D
C20         C208   1.493       .  S
C25          C26   1.542       .  S
C25          C31   1.555       .  S
C25          C29   1.532       .  S
C25         C144   1.542       .  S
C26          H33   1.081       .  S
C26          C27   1.367       .  D
C27          C28   1.540       .  S
C27         C163   1.485       .  S
C28          C32   1.534       .  S
C28          C30   1.540       .  S
C28          H34   1.110       .  S
C29          H35   1.087       .  S
C29          C30   1.359       .  D
C30         C176   1.482       .  S
C31          H36   1.086       .  S
C31          C32   1.366       .  D
C32         C192   1.491       .  S
C37          C38   1.538       .  S
C37          C43   1.543       .  S
C37          C41   1.551       .  S
C37         C147   1.551       .  S
C38          H45   1.086       .  S
C38          C39   1.369       .  D
C39          C40   1.540       .  S
C39          C96   1.497       .  S
C40          C44   1.550       .  S
C40          C42   1.534       .  S
C40          H46   1.110       .  S
C41          H47   1.083       .  S
C41          C42   1.362       .  D
C42         C131   1.487       .  S
C43          H48   1.082       .  S
C43          C44   1.370       .  D
C44         C112   1.499       .  S
Zn49         O53   1.955   1_445  S
Zn49         O54   2.010       .  S
Zn49         O65   2.019       .  S
Zn49        O376   2.013   1_545  S
Zn50         O53   1.963   1_556  S
Zn50         O57   2.016   1_665  S
Zn50       O1009   2.031       .  S
Zn50        O697   2.013   1_565  S
Zn51       O1007   1.963       .  S
Zn51         O59   2.012       .  S
Zn51         O62   2.005       .  S
Zn51        O692   2.020       .  S
Zn52        O689   1.955   1_545  S
Zn52         O63   2.019       .  S
Zn52        O378   2.017   1_545  S
Zn52        O700   2.021       .  S
O53       Zn1005   1.961       .  S
O53        Zn688   1.955   1_565  S
O54          C66   1.273   1_554  A
O55       Zn1004   2.031       .  S
O55          C67   1.275       .  A
O56        Zn687   2.017   1_455  S
O56          C68   1.272       .  A
O57          C66   1.272       .  A
O58        Zn367   2.013       .  S
O58          C68   1.274       .  A
O59          C67   1.272   1_554  A
O60        Zn370   2.017       .  S
O60          C69   1.275       .  A
O61        Zn686   2.013   1_545  S
O61          C70   1.274       .  A
O62          C69   1.270       .  A
O63          C70   1.272   1_554  A
O64        Zn688   2.021   1_455  S
O64          C71   1.275       .  A
O65          C71   1.271       .  A
C66         C307   1.473       .  S
C67         C291   1.478       .  S
C68         C195   1.488       .  S
C69         C179   1.480       .  S
C70         C272   1.485       .  S
C71         C160   1.500       .  S
Zn72         O76   1.969       .  S
Zn72         O77   2.013       .  S
Zn72         O88   2.012       .  S
Zn72        O717   2.017       .  S
Zn73         O76   1.959       .  S
Zn73         O80   2.017       .  S
Zn73       O1032   2.029       .  S
Zn73        O402   2.034       .  S
Zn74       O1030   1.964       .  S
Zn74         O82   2.025       .  S
Zn74         O85   2.047       .  S
Zn74        O397   2.027   1_545  S
Zn75        O394   1.949       .  S
Zn75         O86   2.007       .  S
Zn75        O719   2.003       .  S
Zn75        O405   1.991   1_545  S
O76       Zn1028   1.961       .  S
O76        Zn393   1.949       .  S
O77          C89   1.271       .  A
O78       Zn1027   2.028       .  S
O78          C90   1.277       .  A
O79        Zn392   2.026       .  S
O79          C91   1.276       .  A
O80          C89   1.275       .  A
O81        Zn708   2.018   1_455  S
O81          C91   1.272       .  A
O82          C90   1.274       .  A
O83        Zn711   2.004   1_455  S
O83          C92   1.269       .  A
O84        Zn391   2.034       .  S
O84          C93   1.274       .  A
O85          C92   1.278       .  A
O86          C93   1.271       .  A
O87        Zn393   1.991       .  S
O87          C94   1.272       .  A
O88          C94   1.271       .  A
C89         C227   1.487       .  S
C90         C243   1.486       .  S
C91         C115   1.487       .  S
C92         C128   1.499       .  S
C93         C211   1.477       .  S
C94          C99   1.474       .  S
C95          C96   1.411       .  A
C95         C100   1.407       .  A
C95         H102   1.082       .  S
C96          C97   1.425       .  A
C97         C104   1.514       .  S
C97          C98   1.399       .  A
C98          C99   1.397       .  A
C98         H103   1.085       .  S
C99         C100   1.414       .  A
C100        C101   1.519       .  S
C101        F105   1.385       .  S
C101        F106   1.383       .  S
C101        F107   1.384       .  S
C104        F108   1.383       .  S
C104        F109   1.367       .  S
C104        F110   1.385       .  S
C111        C112   1.406       .  A
C111        C116   1.410       .  A
C111        H118   1.083       .  S
C112        C113   1.426       .  A
C113        C120   1.520       .  S
C113        C114   1.407       .  A
C114        C115   1.400       .  A
C114        H119   1.082       .  S
C115        C116   1.419       .  A
C116        C117   1.519       .  S
C117        F121   1.385       .  S
C117        F122   1.383   1_455  S
C117        F123   1.384       .  S
C120        F124   1.378       .  S
C120        F125   1.377       .  S
C120        F126   1.385       .  S
C127        C128   1.407       .  A
C127        C132   1.408       .  A
C127        H134   1.083       .  S
C128        C129   1.429       .  A
C129        C136   1.521   1_455  S
C129        C130   1.410       .  A
C130        C131   1.398       .  A
C130        H135   1.083       .  S
C131        C132   1.415       .  A
C132        C133   1.514       .  S
C133        F137   1.385       .  S
C133        F138   1.380       .  S
C133        F139   1.383       .  S
C136        F140   1.383       .  S
C136        F142   1.385       .  S
C136        F777   1.384       .  S
F141        C772   1.384       .  S
C143        C144   1.408       .  A
C143        C148   1.403       .  A
C143        H150   1.082       .  S
C144        C145   1.428       .  A
C145        C152   1.525       .  S
C145        C146   1.412       .  A
C146        C147   1.414       .  A
C146        H151   1.076       .  S
C147        C148   1.429       .  A
C148        C149   1.520       .  S
C149        F153   1.385       .  S
C149        F154   1.369       .  S
C149        F155   1.382       .  S
C152        F156   1.380       .  S
C152        F157   1.382       .  S
C152        F158   1.386       .  S
C159        C160   1.409       .  A
C159        C164   1.405       .  A
C159        H166   1.082       .  S
C160        C161   1.429       .  A
C161        C168   1.521       .  S
C161        C162   1.411       .  A
C162        C163   1.400       .  A
C162        H167   1.083       .  S
C163        C164   1.411       .  A
C164        C165   1.513       .  S
C165        F169   1.385   1_455  S
C165        F170   1.380       .  S
C165        F171   1.383       .  S
C168        F172   1.383       .  S
C168        F173   1.383       .  S
C168        F174   1.385       .  S
C175        C176   1.402       .  A
C175        C180   1.404       .  A
C175        H182   1.084       .  S
C176        C177   1.426       .  A
C177        C184   1.523       .  S
C177        C178   1.403       .  A
C178        C179   1.399       .  A
C178        H183   1.086       .  S
C179        C180   1.418       .  A
C180        C181   1.515       .  S
C181        F185   1.385       .  S
C181        F186   1.383       .  S
C181        F187   1.383       .  S
C184        F188   1.383       .  S
C184        F189   1.376       .  S
C184        F508   1.385       .  S
F190        C502   1.385   1_545  S
C191        C192   1.403       .  A
C191        C196   1.408       .  A
C191        H198   1.082       .  S
C192        C193   1.417       .  A
C193        C200   1.515       .  S
C193        C194   1.404       .  A
C194        C195   1.404       .  A
C194        H199   1.083       .  S
C195        C196   1.422       .  A
C196        C833   1.520   1_455  S
C197        C832   1.520       .  S
C197        F201   1.385       .  S
C197        F202   1.383       .  S
C197        F203   1.383       .  S
C200        F204   1.378       .  S
C200        F205   1.378       .  S
C200        F206   1.385       .  S
C207        C208   1.407       .  A
C207        C212   1.410       .  A
C207        H214   1.083       .  S
C208        C209   1.421       .  A
C209        C216   1.516       .  S
C209        C210   1.406       .  A
C210        C211   1.399       .  A
C210        H215   1.083       .  S
C211        C212   1.415       .  A
C212        C531   1.517   1_545  S
C213        C530   1.517       .  S
C213        F217   1.384       .  S
C213        F218   1.383       .  S
C213        F219   1.383       .  S
C216        F220   1.377       .  S
C216        F221   1.379       .  S
C216        F222   1.385       .  S
C223        C224   1.408       .  A
C223        C228   1.407       .  A
C223        H230   1.083       .  S
C224        C225   1.428       .  A
C225        C232   1.522       .  S
C225        C226   1.406       .  A
C226        C227   1.401       .  A
C226        H231   1.083       .  S
C227        C228   1.419       .  A
C228        C229   1.521       .  S
C229        F233   1.385       .  S
C229        F234   1.383       .  S
C229        F235   1.384       .  S
C232        F236   1.374       .  S
C232        F237   1.381       .  S
C232        F238   1.385       .  S
C239        C240   1.403       .  A
C239        C244   1.410       .  A
C239        H246   1.083       .  S
C240        C241   1.422       .  A
C241        C248   1.522       .  S
C241        C242   1.406       .  A
C242        C243   1.403       .  A
C242        H247   1.083       .  S
C243        C244   1.421       .  A
C244        C245   1.519       .  S
C245        F249   1.385       .  S
C245        F250   1.383       .  S
C245        F569   1.383       .  S
C248        F252   1.383       .  S
C248        F253   1.380       .  S
C248        F254   1.385       .  S
F251        C563   1.383       .  S
C255        C256   1.410       .  A
C255        C260   1.403       .  A
C255        H262   1.080       .  S
C256        C257   1.428       .  A
C257        C264   1.526       .  S
C257        C258   1.409       .  A
C258        C259   1.412       .  A
C258        H263   1.081       .  S
C259        C260   1.427       .  A
C260        C261   1.524       .  S
C261        F265   1.386       .  S
C261        F266   1.374       .  S
C261        F267   1.383       .  S
C264        F268   1.380       .  S
C264        F269   1.382       .  S
C264        F270   1.386       .  S
C271        C272   1.402       .  A
C271        C276   1.407       .  A
C271        H278   1.084       .  S
C272        C273   1.418       .  A
C273        C280   1.521       .  S
C273        C274   1.406       .  A
C274        C275   1.407       .  A
C274        H279   1.083       .  S
C275        C276   1.428       .  A
C276        C277   1.526       .  S
C277        F282   1.379       .  S
C277        F283   1.385   1_545  S
C277        F599   1.382       .  S
C280        F285   1.382   1_556  S
C280        F286   1.385       .  S
C280        F920   1.383       .  S
F281        C595   1.382       .  S
F284        C916   1.384       .  S
C287        C288   1.399       .  A
C287        C292   1.405       .  A
C287        H294   1.083       .  S
C288        C289   1.419       .  A
C289        C296   1.520       .  S
C289        C290   1.406       .  A
C290        C291   1.400       .  A
C290        H295   1.083       .  S
C291        C292   1.417       .  A
C292        C293   1.513       .  S
C293        F297   1.385       .  S
C293        F298   1.383       .  S
C293        F299   1.379   1_556  S
C296        F300   1.381       .  S
C296        F301   1.383       .  S
C296        F938   1.385       .  S
F302        C932   1.385   1_455  S
C303        C304   1.406       .  A
C303        C308   1.409       .  A
C303        H310   1.083       .  S
C304        C305   1.421       .  A
C305        C312   1.515       .  S
C305        C306   1.403       .  A
C306        C307   1.397       .  A
C306        H311   1.084       .  S
C307        C308   1.414       .  A
C308        C309   1.518       .  S
C309        F313   1.384       .  S
C309        F314   1.384       .  S
C309        F315   1.382       .  S
C312        F316   1.378       .  S
C312        F317   1.376       .  S
C312        F318   1.385   1_545  S
C319        C320   1.547       .  S
C319        C325   1.550       .  S
C319        C323   1.528       .  S
C319        C574   1.541       .  S
C320        H327   1.081       .  S
C320        C321   1.369       .  D
C321        C322   1.534       .  S
C321        C622   1.490       .  S
C322        C326   1.543       .  S
C322        C324   1.538       .  S
C322        H328   1.108       .  S
C323        H329   1.085       .  S
C323        C324   1.356       .  D
C324        C606   1.479       .  S
C325        H330   1.079       .  S
C325        C326   1.365       .  D
C326        C593   1.496       .  S
C331        C332   1.538       .  S
C331        C337   1.541       .  S
C331        C335   1.543       .  S
C331        C577   1.541       .  S
C332        H339   1.081       .  S
C332        C333   1.366       .  D
C333        C334   1.545       .  S
C333        C542   1.501       .  S
C334        C338   1.539       .  S
C334        C336   1.540       .  S
C334        H340   1.108       .  S
C335        H341   1.083       .  S
C335        C336   1.364       .  D
C336        C558   1.489       .  S
C337        H342   1.084       .  S
C337        C338   1.366       .  D
C338        C526   1.493       .  S
C343        C344   1.542       .  S
C343        C349   1.555       .  S
C343        C347   1.532       .  S
C343        C462   1.542       .  S
C344        H351   1.081       .  S
C344        C345   1.367       .  D
C345        C346   1.540       .  S
C345        C481   1.485       .  S
C346        C350   1.535       .  S
C346        C348   1.540       .  S
C346        H352   1.110       .  S
C347        H353   1.087       .  S
C347        C348   1.359       .  D
C348        C494   1.482       .  S
C349        H354   1.086       .  S
C349        C350   1.366       .  D
C350        C510   1.491       .  S
C355        C356   1.538       .  S
C355        C361   1.543       .  S
C355        C359   1.551       .  S
C355        C465   1.551       .  S
C356        H363   1.086       .  S
C356        C357   1.369       .  D
C357        C358   1.540       .  S
C357        C414   1.497       .  S
C358        C362   1.550       .  S
C358        C360   1.534       .  S
C358        H364   1.110       .  S
C359        H365   1.083       .  S
C359        C360   1.362       .  D
C360        C449   1.487       .  S
C361        H366   1.081       .  S
C361        C362   1.370       .  D
C362        C430   1.499       .  S
Zn367       O371   1.956   1_455  S
Zn367       O372   2.011       .  S
Zn367       O383   2.020       .  S
Zn368       O371   1.963   1_556  S
Zn368       O691   2.032       .  S
Zn368       O375   2.016   1_655  S
Zn368      O1015   2.013       .  S
Zn369       O689   1.963       .  S
Zn369      O1010   2.019       .  S
Zn369       O377   2.012       .  S
Zn369       O380   2.005       .  S
Zn370      O1007   1.955       .  S
Zn370       O381   2.019       .  S
Zn370      O1018   2.020       .  S
O371       Zn687   1.962       .  S
O371      Zn1006   1.955       .  S
O372        C384   1.273   1_554  A
O373       Zn686   2.030       .  S
O373        C385   1.275       .  A
O374      Zn1005   2.017   1_455  S
O374        C386   1.272       .  A
O375        C384   1.272       .  A
O376        C386   1.274       .  A
O377        C385   1.272   1_554  A
O378        C387   1.275       .  A
O379      Zn1004   2.013       .  S
O379        C388   1.274       .  A
O380        C387   1.270       .  A
O381        C388   1.272   1_554  A
O382      Zn1006   2.020   1_455  S
O382        C389   1.275       .  A
O383        C389   1.271       .  A
C384        C625   1.473       .  S
C385        C609   1.478       .  S
C386        C513   1.488       .  S
C387        C497   1.480       .  S
C388        C590   1.485       .  S
C389        C478   1.500       .  S
Zn390       O394   1.968   1_565  S
Zn390       O395   2.013       .  S
Zn390      O1035   2.018       .  S
Zn390       O406   2.012       .  S
Zn391       O394   1.959       .  S
Zn391       O714   2.029       .  S
Zn391       O398   2.017   1_545  S
Zn392       O712   1.963       .  S
Zn392       O400   2.025       .  S
Zn392       O403   2.047       .  S
Zn393      O1037   2.003       .  S
Zn393       O404   2.007       .  S
O394       Zn710   1.961       .  S
O395        C407   1.271       .  A
O396       Zn709   2.028       .  S
O396        C408   1.277       .  A
O397        C409   1.276       .  A
O398        C407   1.275       .  A
O399      Zn1026   2.018   1_455  S
O399        C409   1.272       .  A
O400        C408   1.274       .  A
O401      Zn1029   2.003   1_455  S
O401        C410   1.269       .  A
O402        C411   1.274       .  A
O403        C410   1.278       .  A
O404        C411   1.271       .  A
O405        C412   1.272       .  A
O406        C412   1.271       .  A
C407        C545   1.487       .  S
C408        C561   1.486       .  S
C409        C433   1.487       .  S
C410        C446   1.499       .  S
C411        C529   1.477       .  S
C412        C417   1.474       .  S
C413        C414   1.411       .  A
C413        C418   1.407       .  A
C413        H420   1.082       .  S
C414        C415   1.425       .  A
C415        C422   1.514       .  S
C415        C416   1.399       .  A
C416        C417   1.397       .  A
C416        H421   1.085       .  S
C417        C418   1.414       .  A
C418        C419   1.519       .  S
C419        F423   1.385       .  S
C419        F424   1.383       .  S
C419        F425   1.384       .  S
C422        F426   1.383       .  S
C422        F427   1.367       .  S
C422        F428   1.385       .  S
C429        C430   1.406       .  A
C429        C434   1.410       .  A
C429        H436   1.083       .  S
C430        C431   1.426       .  A
C431        C438   1.520       .  S
C431        C432   1.407       .  A
C432        C433   1.400       .  A
C432        H437   1.082       .  S
C433        C434   1.419       .  A
C434        C435   1.519       .  S
C435        F439   1.385       .  S
C435        F440   1.383   1_455  S
C435        F441   1.384       .  S
C438        F442   1.378       .  S
C438        F443   1.377       .  S
C438        F444   1.385   1_565  S
C445        C446   1.407       .  A
C445        C450   1.408       .  A
C445        H452   1.083       .  S
C446        C447   1.429       .  A
C447        C454   1.521   1_455  S
C447        C448   1.410       .  A
C448        C449   1.398       .  A
C448        H453   1.083       .  S
C449        C450   1.415       .  A
C450        C451   1.514       .  S
C451        F455   1.385       .  S
C451        F456   1.380       .  S
C451        F457   1.383       .  S
C454        F458   1.383       .  S
C454       F1095   1.384       .  S
C454        F460   1.385       .  S
F459       C1090   1.384       .  S
C461        C462   1.408       .  A
C461        C466   1.403       .  A
C461        H468   1.082       .  S
C462        C463   1.428       .  A
C463        C470   1.525       .  S
C463        C464   1.412       .  A
C464        C465   1.414       .  A
C464        H469   1.076       .  S
C465        C466   1.429       .  A
C466        C467   1.520       .  S
C467        F471   1.385       .  S
C467        F472   1.369       .  S
C467        F473   1.382       .  S
C470        F474   1.380       .  S
C470        F475   1.382       .  S
C470        F476   1.386       .  S
C477        C478   1.409       .  A
C477        C482   1.405       .  A
C477        H484   1.082       .  S
C478        C479   1.429       .  A
C479        C486   1.521       .  S
C479        C480   1.411       .  A
C480        C481   1.400       .  A
C480        H485   1.083       .  S
C481        C482   1.411       .  A
C482        C483   1.513       .  S
C483        F487   1.385   1_455  S
C483        F488   1.380       .  S
C483        F489   1.383       .  S
C486        F490   1.383       .  S
C486        F491   1.383       .  S
C486        F492   1.385       .  S
C493        C494   1.402       .  A
C493        C498   1.404       .  A
C493        H500   1.084       .  S
C494        C495   1.426       .  A
C495        C502   1.523       .  S
C495        C496   1.403       .  A
C496        C497   1.399       .  A
C496        H501   1.086       .  S
C497        C498   1.418       .  A
C498        C499   1.515       .  S
C499        F503   1.385       .  S
C499        F504   1.383       .  S
C499        F505   1.383       .  S
C502        F506   1.383       .  S
C502        F507   1.376       .  S
C509        C510   1.403       .  A
C509        C514   1.408       .  A
C509        H516   1.082       .  S
C510        C511   1.417       .  A
C511        C518   1.515       .  S
C511        C512   1.404       .  A
C512        C513   1.404       .  A
C512        H517   1.083       .  S
C513        C514   1.422       .  A
C514       C1151   1.520   1_455  S
C515       C1150   1.520       .  S
C515        F519   1.385       .  S
C515        F520   1.383       .  S
C515        F521   1.383       .  S
C518        F522   1.378       .  S
C518        F523   1.378       .  S
C518        F524   1.385       .  S
C525        C526   1.406       .  A
C525        C530   1.409       .  A
C525        H532   1.083       .  S
C526        C527   1.422       .  A
C527        C534   1.516       .  S
C527        C528   1.406       .  A
C528        C529   1.399       .  A
C528        H533   1.083       .  S
C529        C530   1.414       .  A
C531        F535   1.384       .  S
C531        F536   1.383       .  S
C531        F537   1.383       .  S
C534        F538   1.377       .  S
C534        F539   1.379       .  S
C534        F540   1.385       .  S
C541        C542   1.408       .  A
C541        C546   1.407       .  A
C541        H548   1.083       .  S
C542        C543   1.428       .  A
C543        C550   1.522       .  S
C543        C544   1.406       .  A
C544        C545   1.401       .  A
C544        H549   1.083       .  S
C545        C546   1.419       .  A
C546        C547   1.521       .  S
C547        F551   1.385       .  S
C547        F552   1.383       .  S
C547        F553   1.384       .  S
C550        F554   1.374       .  S
C550        F555   1.381       .  S
C550        F556   1.385       .  S
C557        C558   1.403       .  A
C557        C562   1.410       .  A
C557        H564   1.083       .  S
C558        C559   1.422       .  A
C559        C566   1.522       .  S
C559        C560   1.406       .  A
C560        C561   1.402       .  A
C560        H565   1.083       .  S
C561        C562   1.421       .  A
C562        C563   1.519       .  S
C563        F567   1.385       .  S
C563        F568   1.383       .  S
C566        F570   1.383       .  S
C566        F571   1.380       .  S
C566        F572   1.385       .  S
C573        C574   1.410       .  A
C573        C578   1.403       .  A
C573        H580   1.080       .  S
C574        C575   1.428       .  A
C575        C582   1.526       .  S
C575        C576   1.409       .  A
C576        C577   1.412       .  A
C576        H581   1.081       .  S
C577        C578   1.427       .  A
C578        C579   1.524       .  S
C579        F583   1.386       .  S
C579        F584   1.374       .  S
C579        F585   1.383       .  S
C582        F586   1.380       .  S
C582        F587   1.382       .  S
C582        F588   1.386       .  S
C589        C590   1.402       .  A
C589        C594   1.407       .  A
C589        H596   1.084       .  S
C590        C591   1.418       .  A
C591        C598   1.521       .  S
C591        C592   1.406       .  A
C592        C593   1.407       .  A
C592        H597   1.083       .  S
C593        C594   1.428       .  A
C594        C595   1.526       .  S
C595        F600   1.379       .  S
C595        F601   1.385       .  S
C598       F1238   1.383       .  S
C598        F603   1.383   1_556  S
C598        F604   1.385       .  S
F602       C1234   1.384       .  S
C605        C606   1.399       .  A
C605        C610   1.405       .  A
C605        H612   1.083       .  S
C606        C607   1.419       .  A
C607        C614   1.520       .  S
C607        C608   1.406       .  A
C608        C609   1.400       .  A
C608        H613   1.083       .  S
C609        C610   1.417       .  A
C610        C611   1.513       .  S
C611        F615   1.385       .  S
C611        F616   1.383       .  S
C611        F617   1.379   1_556  S
C614        F618   1.381       .  S
C614        F619   1.383       .  S
C614       F1256   1.385       .  S
F620       C1250   1.385   1_455  S
C621        C622   1.406       .  A
C621        C626   1.409       .  A
C621        H628   1.083       .  S
C622        C623   1.421       .  A
C623        C630   1.515       .  S
C623        C624   1.403       .  A
C624        C625   1.397       .  A
C624        H629   1.084       .  S
C625        C626   1.414       .  A
C626        C627   1.518       .  S
C627        F631   1.384       .  S
C627        F632   1.384       .  S
C627        F633   1.382       .  S
C630        F634   1.378       .  S
C630        F635   1.376       .  S
C630        F636   1.385       .  S
C637        C638   1.547       .  S
C637        C643   1.550       .  S
C637        C641   1.528       .  S
C637        C892   1.542       .  S
C638        H645   1.081       .  S
C638        C639   1.369       .  D
C639        C640   1.535       .  S
C639        C940   1.491       .  S
C640        C644   1.543       .  S
C640        C642   1.538       .  S
C640        H646   1.108       .  S
C641        H647   1.085       .  S
C641        C642   1.356       .  D
C642        C924   1.479       .  S
C643        H648   1.078       .  S
C643        C644   1.366       .  D
C644        C911   1.496       .  S
C649        C650   1.538       .  S
C649        C655   1.541       .  S
C649        C653   1.543       .  S
C649        C895   1.541       .  S
C650        H657   1.081       .  S
C650        C651   1.366       .  D
C651        C652   1.546       .  S
C651        C860   1.503       .  S
C652        C656   1.540       .  S
C652        C654   1.541       .  S
C652        H658   1.108       .  S
C653        H659   1.083       .  S
C653        C654   1.364       .  D
C654        C876   1.490       .  S
C655        H660   1.084       .  S
C655        C656   1.366       .  D
C656        C844   1.493       .  S
C661        C662   1.542       .  S
C661        C667   1.555       .  S
C661        C665   1.532       .  S
C661        C780   1.542       .  S
C662        H669   1.081       .  S
C662        C663   1.367       .  D
C663        C664   1.539       .  S
C663        C799   1.485       .  S
C664        C668   1.535       .  S
C664        C666   1.540       .  S
C664        H670   1.110       .  S
C665        H671   1.087       .  S
C665        C666   1.359       .  D
C666        C812   1.482       .  S
C667        H672   1.086       .  S
C667        C668   1.367       .  D
C668        C828   1.492       .  S
C673        C674   1.536       .  S
C673        C679   1.545       .  S
C673        C677   1.551       .  S
C673        C783   1.549       .  S
C674        H681   1.087       .  S
C674        C675   1.365       .  D
C675        C676   1.536       .  S
C675        C732   1.491       .  S
C676        C680   1.550       .  S
C676        C678   1.535       .  S
C676        H682   1.105       .  S
C677        H683   1.083       .  S
C677        C678   1.361       .  D
C678        C767   1.489       .  S
C679        H684   1.082       .  S
C679        C680   1.373       .  D
C680        C748   1.504       .  S
Zn685       O689   1.956   1_545  S
Zn685       O690   2.013       .  S
Zn685      O1012   2.013   1_545  S
Zn685       O701   2.021       .  S
Zn686       O689   1.963   1_556  S
Zn686       O693   2.017   1_565  S
Zn687       O695   2.011       .  S
Zn687       O698   2.005       .  S
Zn688      O1014   2.017   1_545  S
Zn688       O699   2.021       .  S
O690        C702   1.273   1_554  A
O691        C703   1.275       .  A
O692        C704   1.272       .  A
O693        C702   1.272       .  A
O694      Zn1003   2.014       .  S
O694        C704   1.274       .  A
O695        C703   1.272   1_554  A
O696      Zn1006   2.017       .  S
O696        C705   1.275       .  A
O697        C706   1.274       .  A
O698        C705   1.270       .  A
O699        C706   1.273   1_554  A
O700        C707   1.275       .  A
O701        C707   1.271       .  A
C702        C943   1.474       .  S
C703        C927   1.478       .  S
C704        C831   1.489       .  S
C705        C815   1.480       .  S
C706        C908   1.485       .  S
C707        C796   1.500       .  S
Zn708       O712   1.964   1_655  S
Zn708       O713   2.014       .  S
Zn708       O724   2.002       .  S
Zn709       O712   1.959       .  S
Zn709       O716   2.020   1_455  S
Zn709      O1038   2.033   1_455  S
Zn710      O1033   2.027   1_545  S
Zn710       O718   2.026       .  S
Zn710       O721   2.042       .  S
Zn711      O1030   1.953   1_655  S
Zn711       O722   2.007       .  S
Zn711      O1041   2.001   1_545  S
O712      Zn1029   1.953   1_455  S
O713        C725   1.271       .  A
O714        C726   1.277       .  A
O715      Zn1028   2.027       .  S
O715        C727   1.276       .  A
O716        C725   1.275       .  A
O717        C727   1.272       .  A
O718        C726   1.274       .  A
O719        C728   1.269       .  A
O720      Zn1027   2.033   1_655  S
O720        C729   1.274       .  A
O721        C728   1.278       .  A
O722        C729   1.271       .  A
O723      Zn1029   2.001       .  S
O723        C730   1.272       .  A
O724        C730   1.270       .  A
C725        C863   1.488       .  S
C726        C879   1.486       .  S
C727        C751   1.485       .  S
C728        C764   1.499       .  S
C729        C847   1.477       .  S
C730        C735   1.479       .  S
C731        C732   1.406       .  A
C731        C736   1.404       .  A
C731        H738   1.082       .  S
C732        C733   1.421       .  A
C733        C740   1.518       .  S
C733        C734   1.404       .  A
C734        C735   1.403       .  A
C734        H739   1.083       .  S
C735        C736   1.418       .  A
C736        C737   1.521       .  S
C737        F741   1.385       .  S
C737        F742   1.383       .  S
C737        F743   1.384       .  S
C740        F744   1.380       .  S
C740        F745   1.376       .  S
C740        F746   1.385       .  S
C747        C748   1.408       .  A
C747        C752   1.409       .  A
C747        H754   1.083       .  S
C748        C749   1.429       .  A
C749        C756   1.519       .  S
C749        C750   1.407       .  A
C750        C751   1.399       .  A
C750        H755   1.083       .  S
C751        C752   1.417       .  A
C752        C753   1.519       .  S
C753        F757   1.385       .  S
C753        F758   1.382       .  S
C753        F759   1.384       .  S
C756        F760   1.380       .  S
C756        F761   1.373       .  S
C756        F762   1.385       .  S
C763        C764   1.406       .  A
C763        C768   1.405       .  A
C763        H770   1.083       .  S
C764        C765   1.430       .  A
C765        C772   1.521       .  S
C765        C766   1.412       .  A
C766        C767   1.399       .  A
C766        H771   1.083       .  S
C767        C768   1.415       .  A
C768        C769   1.512       .  S
C769        F773   1.385       .  S
C769        F774   1.379       .  S
C769        F775   1.382       .  S
C772        F776   1.383       .  S
C772        F778   1.385       .  S
C779        C780   1.409       .  A
C779        C784   1.404       .  A
C779        H786   1.082       .  S
C780        C781   1.429       .  A
C781        C788   1.525       .  S
C781        C782   1.411       .  A
C782        C783   1.412       .  A
C782        H787   1.077       .  S
C783        C784   1.428       .  A
C784        C785   1.522       .  S
C785        F789   1.386       .  S
C785        F790   1.371       .  S
C785        F791   1.381       .  S
C788        F792   1.380       .  S
C788        F793   1.382       .  S
C788        F794   1.386       .  S
C795        C796   1.410       .  A
C795        C800   1.405       .  A
C795        H802   1.082       .  S
C796        C797   1.429       .  A
C797        C804   1.521       .  S
C797        C798   1.412       .  A
C798        C799   1.400       .  A
C798        H803   1.083       .  S
C799        C800   1.411       .  A
C800        C801   1.513       .  S
C801        F805   1.384       .  S
C801        F806   1.380       .  S
C801        F807   1.383       .  S
C804        F808   1.383       .  S
C804        F809   1.383       .  S
C804        F810   1.385       .  S
C811        C812   1.402       .  A
C811        C816   1.404       .  A
C811        H818   1.084       .  S
C812        C813   1.426       .  A
C813        C820   1.523       .  S
C813        C814   1.403       .  A
C814        C815   1.399       .  A
C814        H819   1.086       .  S
C815        C816   1.418       .  A
C816        C817   1.515       .  S
C817        F821   1.385       .  S
C817        F822   1.383       .  S
C817        F823   1.382       .  S
C820        F824   1.383       .  S
C820        F825   1.376       .  S
C820       F1144   1.385       .  S
F826       C1138   1.385   1_545  S
C827        C828   1.404       .  A
C827        C832   1.409       .  A
C827        H834   1.082       .  S
C828        C829   1.418       .  A
C829        C836   1.515       .  S
C829        C830   1.404       .  A
C830        C831   1.404       .  A
C830        H835   1.083       .  S
C831        C832   1.422       .  A
C833        F837   1.385       .  S
C833        F838   1.383       .  S
C833        F839   1.383       .  S
C836        F840   1.378       .  S
C836        F841   1.378       .  S
C836        F842   1.385       .  S
C843        C844   1.407       .  A
C843        C848   1.410       .  A
C843        H850   1.083       .  S
C844        C845   1.422       .  A
C845        C852   1.516       .  S
C845        C846   1.406       .  A
C846        C847   1.399       .  A
C846        H851   1.083       .  S
C847        C848   1.415       .  A
C848       C1167   1.518   1_545  S
C849       C1166   1.518       .  S
C849        F853   1.384       .  S
C849        F854   1.383       .  S
C849        F855   1.384       .  S
C852        F856   1.377       .  S
C852        F857   1.379       .  S
C852        F858   1.385       .  S
C859        C860   1.408       .  A
C859        C864   1.408       .  A
C859        H866   1.083       .  S
C860        C861   1.429       .  A
C861        C868   1.522       .  S
C861        C862   1.407       .  A
C862        C863   1.401       .  A
C862        H867   1.083       .  S
C863        C864   1.419       .  A
C864        C865   1.521       .  S
C865        F869   1.385       .  S
C865        F870   1.383       .  S
C865        F871   1.384       .  S
C868        F872   1.374       .  S
C868        F873   1.381       .  S
C868        F874   1.385   1_655  S
C875        C876   1.403       .  A
C875        C880   1.410       .  A
C875        H882   1.083       .  S
C876        C877   1.422       .  A
C877        C884   1.522       .  S
C877        C878   1.407       .  A
C878        C879   1.402       .  A
C878        H883   1.083       .  S
C879        C880   1.420       .  A
C880        C881   1.519       .  S
C881        F885   1.385       .  S
C881        F886   1.383       .  S
C881       F1205   1.383       .  S
C884        F888   1.383       .  S
C884        F889   1.380       .  S
C884        F890   1.385       .  S
F887       C1199   1.383       .  S
C891        C892   1.411       .  A
C891        C896   1.403       .  A
C891        H898   1.080       .  S
C892        C893   1.429       .  A
C893        C900   1.526       .  S
C893        C894   1.410       .  A
C894        C895   1.412       .  A
C894        H899   1.081       .  S
C895        C896   1.426       .  A
C896        C897   1.524       .  S
C897        F901   1.386       .  S
C897        F902   1.374       .  S
C897        F903   1.383       .  S
C900        F904   1.380       .  S
C900        F905   1.382       .  S
C900        F906   1.386       .  S
C907        C908   1.402       .  A
C907        C912   1.407       .  A
C907        H914   1.084       .  S
C908        C909   1.418       .  A
C909        C916   1.521       .  S
C909        C910   1.407       .  A
C910        C911   1.407       .  A
C910        H915   1.083       .  S
C911        C912   1.429       .  A
C912        C913   1.526       .  S
C913       F1235   1.382       .  S
C913        F918   1.379       .  S
C913        F919   1.385   1_545  S
C916        F921   1.382   1_556  S
C916        F922   1.385       .  S
F917       C1231   1.382       .  S
C923        C924   1.399       .  A
C923        C928   1.405       .  A
C923        H930   1.083       .  S
C924        C925   1.420       .  A
C925        C932   1.520       .  S
C925        C926   1.407       .  A
C926        C927   1.401       .  A
C926        H931   1.083       .  S
C927        C928   1.417       .  A
C928        C929   1.513       .  S
C929        F933   1.385       .  S
C929        F934   1.384       .  S
C929        F935   1.379   1_556  S
C932        F936   1.381       .  S
C932        F937   1.383       .  S
C939        C940   1.406       .  A
C939        C944   1.409       .  A
C939        H946   1.083       .  S
C940        C941   1.421       .  A
C941        C948   1.515       .  S
C941        C942   1.404       .  A
C942        C943   1.397       .  A
C942        H947   1.084       .  S
C943        C944   1.415       .  A
C944        C945   1.518       .  S
C945        F949   1.384       .  S
C945        F950   1.384       .  S
C945        F951   1.382       .  S
C948        F952   1.378       .  S
C948        F953   1.376       .  S
C948        F954   1.385   1_545  S
C955        C956   1.547       .  S
C955        C961   1.550       .  S
C955        C959   1.528       .  S
C955       C1210   1.542       .  S
C956        H963   1.081       .  S
C956        C957   1.369       .  D
C957        C958   1.535       .  S
C957       C1258   1.491       .  S
C958        C962   1.543       .  S
C958        C960   1.538       .  S
C958        H964   1.108       .  S
C959        H965   1.085       .  S
C959        C960   1.356       .  D
C960       C1242   1.479       .  S
C961        H966   1.078       .  S
C961        C962   1.366       .  D
C962       C1229   1.496       .  S
C967        C968   1.538       .  S
C967        C973   1.541       .  S
C967        C971   1.543       .  S
C967       C1213   1.541       .  S
C968        H975   1.081       .  S
C968        C969   1.366       .  D
C969        C970   1.546       .  S
C969       C1178   1.503       .  S
C970        C974   1.540       .  S
C970        C972   1.540       .  S
C970        H976   1.108       .  S
C971        H977   1.083       .  S
C971        C972   1.364       .  D
C972       C1194   1.490       .  S
C973        H978   1.084       .  S
C973        C974   1.366       .  D
C974       C1162   1.493       .  S
C979        C980   1.541       .  S
C979        C985   1.555       .  S
C979        C983   1.532       .  S
C979       C1098   1.542       .  S
C980        H987   1.081       .  S
C980        C981   1.367       .  D
C981        C982   1.539       .  S
C981       C1117   1.485       .  S
C982        C986   1.535       .  S
C982        C984   1.540       .  S
C982        H988   1.110       .  S
C983        H989   1.087       .  S
C983        C984   1.359       .  D
C984       C1130   1.481       .  S
C985        H990   1.086       .  S
C985        C986   1.367       .  D
C986       C1146   1.492       .  S
C991        C992   1.536       .  S
C991        C997   1.545       .  S
C991        C995   1.551       .  S
C991       C1101   1.549       .  S
C992        H999   1.087       .  S
C992        C993   1.365       .  D
C993        C994   1.537       .  S
C993       C1050   1.491       .  S
C994        C998   1.550       .  S
C994        C996   1.535       .  S
C994       H1000   1.105       .  S
C995       H1001   1.083       .  S
C995        C996   1.362       .  D
C996       C1085   1.489       .  S
C997       H1002   1.082       .  S
C997        C998   1.372       .  D
C998       C1066   1.504       .  S
Zn1003     O1007   1.956       .  S
Zn1003     O1008   2.013       .  S
Zn1003     O1019   2.021       .  S
Zn1004     O1007   1.963   1_556  S
Zn1004     O1011   2.017       .  S
Zn1005     O1013   2.011       .  S
Zn1005     O1016   2.005       .  S
Zn1006     O1017   2.020       .  S
O1008      C1020   1.273   1_554  A
O1009      C1021   1.275       .  A
O1010      C1022   1.272       .  A
O1011      C1020   1.272       .  A
O1012      C1022   1.274       .  A
O1013      C1021   1.272   1_554  A
O1014      C1023   1.275       .  A
O1015      C1024   1.274       .  A
O1016      C1023   1.270       .  A
O1017      C1024   1.273   1_554  A
O1018      C1025   1.275       .  A
O1019      C1025   1.271       .  A
C1020      C1261   1.474       .  S
C1021      C1245   1.478       .  S
C1022      C1149   1.489       .  S
C1023      C1133   1.480       .  S
C1024      C1226   1.485       .  S
C1025      C1114   1.500       .  S
Zn1026     O1030   1.965   1_665  S
Zn1026     O1031   2.013       .  S
Zn1026     O1042   2.002       .  S
Zn1027     O1030   1.959       .  S
Zn1027     O1034   2.019   1_445  S
Zn1028     O1036   2.026       .  S
Zn1028     O1039   2.043       .  S
Zn1029     O1040   2.006       .  S
O1031      C1043   1.271       .  A
O1032      C1044   1.277       .  A
O1033      C1045   1.276       .  A
O1034      C1043   1.275       .  A
O1035      C1045   1.272       .  A
O1036      C1044   1.274       .  A
O1037      C1046   1.269       .  A
O1038      C1047   1.274       .  A
O1039      C1046   1.278       .  A
O1040      C1047   1.271       .  A
O1041      C1048   1.272       .  A
O1042      C1048   1.270       .  A
C1043      C1181   1.488       .  S
C1044      C1197   1.486       .  S
C1045      C1069   1.485       .  S
C1046      C1082   1.499       .  S
C1047      C1165   1.477       .  S
C1048      C1053   1.479       .  S
C1049      C1050   1.406       .  A
C1049      C1054   1.404       .  A
C1049      H1056   1.082       .  S
C1050      C1051   1.421       .  A
C1051      C1058   1.518       .  S
C1051      C1052   1.403       .  A
C1052      C1053   1.402       .  A
C1052      H1057   1.084       .  S
C1053      C1054   1.418       .  A
C1054      C1055   1.521       .  S
C1055      F1059   1.385       .  S
C1055      F1060   1.383       .  S
C1055      F1061   1.384       .  S
C1058      F1062   1.381       .  S
C1058      F1063   1.375       .  S
C1058      F1064   1.385       .  S
C1065      C1066   1.408       .  A
C1065      C1070   1.409       .  A
C1065      H1072   1.083       .  S
C1066      C1067   1.429       .  A
C1067      C1074   1.519       .  S
C1067      C1068   1.408       .  A
C1068      C1069   1.399       .  A
C1068      H1073   1.083       .  S
C1069      C1070   1.417       .  A
C1070      C1071   1.519       .  S
C1071      F1075   1.385       .  S
C1071      F1076   1.382       .  S
C1071      F1077   1.384       .  S
C1074      F1078   1.380       .  S
C1074      F1079   1.374       .  S
C1074      F1080   1.385   1_565  S
C1081      C1082   1.406       .  A
C1081      C1086   1.405       .  A
C1081      H1088   1.083       .  S
C1082      C1083   1.430       .  A
C1083      C1090   1.521       .  S
C1083      C1084   1.412       .  A
C1084      C1085   1.399       .  A
C1084      H1089   1.083       .  S
C1085      C1086   1.415       .  A
C1086      C1087   1.513       .  S
C1087      F1091   1.385       .  S
C1087      F1092   1.379       .  S
C1087      F1093   1.382       .  S
C1090      F1094   1.383       .  S
C1090      F1096   1.385       .  S
C1097      C1098   1.409       .  A
C1097      C1102   1.404       .  A
C1097      H1104   1.082       .  S
C1098      C1099   1.429       .  A
C1099      C1106   1.525       .  S
C1099      C1100   1.411       .  A
C1100      C1101   1.412       .  A
C1100      H1105   1.077       .  S
C1101      C1102   1.428       .  A
C1102      C1103   1.521       .  S
C1103      F1107   1.386       .  S
C1103      F1108   1.371       .  S
C1103      F1109   1.381       .  S
C1106      F1110   1.380       .  S
C1106      F1111   1.382       .  S
C1106      F1112   1.386       .  S
C1113      C1114   1.410       .  A
C1113      C1118   1.405       .  A
C1113      H1120   1.082       .  S
C1114      C1115   1.429       .  A
C1115      C1122   1.521       .  S
C1115      C1116   1.412       .  A
C1116      C1117   1.400       .  A
C1116      H1121   1.083       .  S
C1117      C1118   1.410       .  A
C1118      C1119   1.513       .  S
C1119      F1123   1.385       .  S
C1119      F1124   1.380       .  S
C1119      F1125   1.383       .  S
C1122      F1126   1.383       .  S
C1122      F1127   1.383       .  S
C1122      F1128   1.385       .  S
C1129      C1130   1.402       .  A
C1129      C1134   1.404       .  A
C1129      H1136   1.084       .  S
C1130      C1131   1.426       .  A
C1131      C1138   1.523       .  S
C1131      C1132   1.403       .  A
C1132      C1133   1.399       .  A
C1132      H1137   1.086       .  S
C1133      C1134   1.418       .  A
C1134      C1135   1.515       .  S
C1135      F1139   1.385       .  S
C1135      F1140   1.383       .  S
C1135      F1141   1.382       .  S
C1138      F1142   1.383       .  S
C1138      F1143   1.376       .  S
C1145      C1146   1.404       .  A
C1145      C1150   1.409       .  A
C1145      H1152   1.082       .  S
C1146      C1147   1.418       .  A
C1147      C1154   1.515       .  S
C1147      C1148   1.404       .  A
C1148      C1149   1.404       .  A
C1148      H1153   1.083       .  S
C1149      C1150   1.422       .  A
C1151      F1155   1.385       .  S
C1151      F1156   1.383       .  S
C1151      F1157   1.383       .  S
C1154      F1158   1.378       .  S
C1154      F1159   1.378       .  S
C1154      F1160   1.385       .  S
C1161      C1162   1.407       .  A
C1161      C1166   1.409       .  A
C1161      H1168   1.083       .  S
C1162      C1163   1.422       .  A
C1163      C1170   1.516       .  S
C1163      C1164   1.406       .  A
C1164      C1165   1.399       .  A
C1164      H1169   1.083       .  S
C1165      C1166   1.414       .  A
C1167      F1171   1.384       .  S
C1167      F1172   1.383       .  S
C1167      F1173   1.384       .  S
C1170      F1174   1.377       .  S
C1170      F1175   1.379       .  S
C1170      F1176   1.385       .  S
C1177      C1178   1.408       .  A
C1177      C1182   1.408       .  A
C1177      H1184   1.083       .  S
C1178      C1179   1.429       .  A
C1179      C1186   1.522       .  S
C1179      C1180   1.407       .  A
C1180      C1181   1.401       .  A
C1180      H1185   1.083       .  S
C1181      C1182   1.419       .  A
C1182      C1183   1.521       .  S
C1183      F1187   1.385       .  S
C1183      F1188   1.383       .  S
C1183      F1189   1.384       .  S
C1186      F1190   1.374       .  S
C1186      F1191   1.381       .  S
C1186      F1192   1.385   1_655  S
C1193      C1194   1.403       .  A
C1193      C1198   1.410       .  A
C1193      H1200   1.083       .  S
C1194      C1195   1.422       .  A
C1195      C1202   1.522       .  S
C1195      C1196   1.407       .  A
C1196      C1197   1.402       .  A
C1196      H1201   1.083       .  S
C1197      C1198   1.420       .  A
C1198      C1199   1.519       .  S
C1199      F1203   1.385       .  S
C1199      F1204   1.383       .  S
C1202      F1206   1.383       .  S
C1202      F1207   1.381       .  S
C1202      F1208   1.385       .  S
C1209      C1210   1.411       .  A
C1209      C1214   1.403       .  A
C1209      H1216   1.080       .  S
C1210      C1211   1.429       .  A
C1211      C1218   1.526       .  S
C1211      C1212   1.410       .  A
C1212      C1213   1.412       .  A
C1212      H1217   1.081       .  S
C1213      C1214   1.426       .  A
C1214      C1215   1.524       .  S
C1215      F1219   1.386       .  S
C1215      F1220   1.374       .  S
C1215      F1221   1.383       .  S
C1218      F1222   1.380       .  S
C1218      F1223   1.382       .  S
C1218      F1224   1.386       .  S
C1225      C1226   1.402       .  A
C1225      C1230   1.407       .  A
C1225      H1232   1.084       .  S
C1226      C1227   1.418       .  A
C1227      C1234   1.521       .  S
C1227      C1228   1.407       .  A
C1228      C1229   1.407       .  A
C1228      H1233   1.083       .  S
C1229      C1230   1.429       .  A
C1230      C1231   1.526       .  S
C1231      F1236   1.379       .  S
C1231      F1237   1.385       .  S
C1234      F1239   1.382   1_556  S
C1234      F1240   1.385       .  S
C1241      C1242   1.399       .  A
C1241      C1246   1.405       .  A
C1241      H1248   1.083       .  S
C1242      C1243   1.420       .  A
C1243      C1250   1.520       .  S
C1243      C1244   1.407       .  A
C1244      C1245   1.401       .  A
C1244      H1249   1.083       .  S
C1245      C1246   1.417       .  A
C1246      C1247   1.513       .  S
C1247      F1251   1.385       .  S
C1247      F1252   1.384       .  S
C1247      F1253   1.379   1_556  S
C1250      F1254   1.381       .  S
C1250      F1255   1.383       .  S
C1257      C1258   1.406       .  A
C1257      C1262   1.410       .  A
C1257      H1264   1.083       .  S
C1258      C1259   1.421       .  A
C1259      C1266   1.515       .  S
C1259      C1260   1.404       .  A
C1260      C1261   1.397       .  A
C1260      H1265   1.084       .  S
C1261      C1262   1.415       .  A
C1262      C1263   1.518       .  S
C1263      F1267   1.384       .  S
C1263      F1268   1.384       .  S
C1263      F1269   1.382       .  S
C1266      F1270   1.378       .  S
C1266      F1271   1.376       .  S
C1266      F1272   1.385       .  S
