geometry optimzed in LAMMPS
_audit_creation_date              2020-11-30 
_audit_creation_method            'lammps2cif' 
_symmetry_space_group_name_H-M    'P1' 
_symmetry_Int_Tables_number       1 
_symmetry_cell_setting            triclinic 
loop_ 
_symmetry_equiv_pos_as_xyz 
  x,y,z 
_cell_length_a                    38.585128925746034 
_cell_length_b                    38.82280873488598 
_cell_length_c                    38.69923456873328 
_cell_angle_alpha                 90.12323369934876 
_cell_angle_beta                  90.20372683291716 
_cell_angle_gamma                 89.70370862844243 
loop_ 
_atom_site_label 
_atom_site_type_symbol 
_atom_site_fract_x 
_atom_site_fract_y 
_atom_site_fract_z 
_atom_site_charge 
C1          C  0.36657288  0.36824301  0.99715097     0.02970
C2          C  0.37458579  0.33278169  0.50052362    -0.13170
C3          C  0.35119816  0.30745449  0.48861743     0.00480
C4          C  0.31975303  0.31939313  0.47417421    -0.11700
C5          C  0.30804108  0.35298139  0.97932015     0.02970
C6          C  0.33219755  0.37801001  0.98902092    -0.11120
H7          H  0.39864246  0.32580769  0.51275281     0.08560
H8          H  0.30212215  0.30161938  0.46192904     0.06090
H9          H  0.32407504  0.40472594  0.99040518     0.05940
C10         C  0.36887020  0.09753414  0.50226612     0.02970
C11         C  0.33565960  0.08909937  0.51462731    -0.13170
C12         C  0.30920766  0.11374008  0.51502751     0.00480
C13         C  0.31807272  0.14787563  0.50707937    -0.11700
C14         C  0.35128206  0.15759846  0.49562048     0.02970
C15         C  0.37608728  0.13145155  0.49161574    -0.11120
H16         H  0.33042409  0.06334094  0.52377938     0.08560
H17         H  0.29829541  0.16736622  0.50930359     0.06090
H18         H  0.40072035  0.13701246  0.47978191     0.05940
C19         C  0.09889351  0.09758275  0.50873665     0.02970
C20         C  0.13491062  0.09046907  0.50958142    -0.13170
C21         C  0.15958442  0.11733529  0.50894198     0.00480
C22         C  0.14616895  0.15112673  0.51099215    -0.11700
C23         C  0.11095861  0.15876492  0.51300988     0.02970
C24         C  0.08726109  0.13196567  0.51138633    -0.11120
H25         H  0.14297766  0.06409255  0.51245454     0.08560
H26         H  0.16250227  0.17292773  0.51320890     0.06090
H27         H  0.05987289  0.13802767  0.51277534     0.05940
C28         C  0.09933040  0.36517288  0.49934124     0.02970
C29         C  0.13435857  0.37250363  0.99258081    -0.13170
C30         C  0.15927285  0.34588391  0.99167552     0.00480
C31         C  0.14891242  0.31185055  0.49750217    -0.11700
C32         C  0.11423864  0.30419318  0.50490177     0.02970
C33         C  0.08964912  0.33084844  0.50589325    -0.11120
H34         H  0.14254265  0.39877043  0.98804904     0.08560
H35         H  0.16806324  0.29131168  0.49698406     0.06090
H36         H  0.06300349  0.32466261  0.51194599     0.05940
C37         C  0.36841240  0.49124242  0.38436260     0.02970
C38         C  0.33301436  0.48857198  0.39280623    -0.13170
C39         C  0.30774370  0.49034632  0.36683883     0.00480
C40         C  0.31762885  0.49395683  0.33242838    -0.11700
C41         C  0.35246397  0.49794351  0.32350705     0.02970
C42         C  0.37782123  0.49695109  0.34960001    -0.11120
H43         H  0.32498293  0.48469816  0.41930848     0.08560
H44         H  0.29788433  0.49404156  0.31239682     0.06090
H45         H  0.40476401  0.50030345  0.34266372     0.05940
C46         C  0.09987438  0.47831057  0.38482981     0.02970
C47         C  0.09007991  0.47383483  0.34995830    -0.13170
C48         C  0.11506542  0.47381136  0.32381501     0.00480
C49         C  0.15001897  0.47779606  0.33255269    -0.11700
C50         C  0.16036139  0.48087947  0.36704139     0.02970
C51         C  0.13534361  0.48143763  0.39319837    -0.11120
H52         H  0.06310088  0.47045997  0.34294354     0.08560
H53         H  0.16945301  0.47781847  0.31236281     0.06090
H54         H  0.14363043  0.48425254  0.41982872     0.05940
C55         C  0.09976729  0.48018581  0.11654500     0.02970
C56         C  0.09028099  0.47578963  0.15139460    -0.13170
C57         C  0.11551173  0.47550841  0.17747070     0.00480
C58         C  0.15044485  0.47940629  0.16862614    -0.11700
C59         C  0.16044692  0.48255944  0.13403996     0.02970
C60         C  0.13511601  0.48322538  0.10805995    -0.11120
H61         H  0.06335950  0.47238398  0.15841349     0.08560
H62         H  0.17010180  0.47900523  0.18872739     0.06090
H63         H  0.14311836  0.48573233  0.08137824     0.05940
C64         C  0.36843801  0.48933629  0.11585754     0.02970
C65         C  0.37770541  0.49526602  0.15069400    -0.13170
C66         C  0.35224748  0.49639744  0.17648790     0.00480
C67         C  0.31745303  0.49220565  0.16718561    -0.11700
C68         C  0.30773688  0.48832949  0.13264215     0.02970
C69         C  0.33311190  0.48651074  0.10699844    -0.11120
H70         H  0.40460441  0.49882591  0.15790072     0.08560
H71         H  0.29761902  0.49251632  0.18698662     0.06090
H72         H  0.32519845  0.48259447  0.08039369     0.05940
C73         C  0.48391924  0.09851062  0.38467347     0.02970
C74         C  0.48398286  0.13363754  0.39445131    -0.13170
C75         C  0.48376881  0.15959523  0.36929522     0.00480
C76         C  0.48322441  0.15061046  0.33431478    -0.11700
C77         C  0.48379330  0.11612420  0.32397173     0.02970
C78         C  0.48393705  0.09003698  0.34909319    -0.11120
H79         H  0.48448848  0.14097446  0.42147252     0.08560
H80         H  0.48314870  0.17071961  0.31488743     0.06090
H81         H  0.48433262  0.06336872  0.34080763     0.05940
C82         C  0.48125242  0.36687812  0.38434374     0.02970
C83         C  0.48252653  0.33172388  0.39357806    -0.13170
C84         C  0.48125930  0.30608039  0.36807955     0.00480
C85         C  0.47856240  0.31536066  0.33332533    -0.11700
C86         C  0.47741106  0.34997449  0.32361111     0.02970
C87         C  0.47875921  0.37575025  0.34903411    -0.11120
H88         H  0.48476924  0.32411764  0.42041865     0.08560
H89         H  0.47786423  0.29545631  0.31362021     0.06090
H90         H  0.47791894  0.40250275  0.34115567     0.05940
C91         C  0.48334286  0.09881496  0.11546203     0.02970
C92         C  0.48351013  0.09062568  0.15102809    -0.13170
C93         C  0.48293857  0.11689707  0.17602508     0.00480
C94         C  0.48189392  0.15132017  0.16557185    -0.11700
C95         C  0.48210318  0.15994453  0.13054131     0.02970
C96         C  0.48273082  0.13381627  0.10552403    -0.11120
H97         H  0.48437233  0.06402920  0.15941185     0.08560
H98         H  0.48170160  0.17160685  0.18489269     0.06090
H99         H  0.48305147  0.14094763  0.07847561     0.05940
C100        C  0.48119067  0.36691794  0.11576418     0.02970
C101        C  0.47902311  0.37543246  0.15117837    -0.13170
C102        C  0.47814430  0.34939237  0.17623311     0.00480
C103        C  0.47954798  0.31485084  0.16599733    -0.11700
C104        C  0.48166914  0.30598977  0.13103834     0.02970
C105        C  0.48249116  0.33189765  0.10598967    -0.11120
H106        H  0.47800396  0.40210887  0.15940810     0.08560
H107        H  0.47906055  0.29472260  0.18538236     0.06090
H108        H  0.48423045  0.32456618  0.07901921     0.05940
O109        O  0.42601326  0.38450582  0.50079621    -0.80290
O110        O  0.42779581  0.08062986  0.49992083    -0.81840
O111        O  0.38545881  0.48505555  0.05702346    -0.78860
O112        O  0.38540130  0.48640017  0.44336066    -0.77240
O113        O  0.42732109  0.48661176  0.40175454    -0.79030
O114        O  0.42738183  0.48544480  0.09890943    -0.79970
O115        O  0.38591650  0.03916690  0.50092636    -0.81290
O116        O  0.38446213  0.42669039  0.50027837    -0.81580
Eu117      Eu  0.41380595  0.48266005  0.50027134     2.39200
O118        O  0.44894329  0.01728124  0.46525326    -0.89090
O119        O  0.44848460  0.44746567  0.03572737    -0.92700
C120        C  0.39406853  0.39478158  0.50031168     1.01990
C121        C  0.39593685  0.07077954  0.50072106     1.01810
C122        C  0.39545099  0.48634699  0.08889438     1.01760
C123        C  0.39539937  0.48789657  0.41156555     0.99620
H124        H  0.43487449  0.03219698  0.04949087     0.29360
O125        O  0.44912303  0.01747573  0.03523005    -1.01480
H126        H  0.43371815  0.43354170  0.45022269     0.29400
O127        O  0.44848472  0.44758459  0.46476917    -1.04020
O128        O  0.04092956  0.07904565  0.50407361    -0.81250
O129        O  0.04049401  0.38376726  0.49999791    -0.80780
O130        O  0.48450411  0.03949278  0.09894107    -0.79220
O131        O  0.48435477  0.03925551  0.40142863    -0.82560
O132        O  0.48263368  0.42581919  0.40153465    -0.80420
O133        O  0.48229689  0.42596255  0.09911575    -0.79070
O134        O  0.08295603  0.48079847  0.05745229    -0.80590
O135        O  0.08324121  0.48051808  0.44395854    -0.82510
O136        O  0.04089335  0.48173055  0.09891192    -0.79250
O137        O  0.04106220  0.48011864  0.40232072    -0.81930
O138        O  0.48372417  0.08060784  0.05675941    -0.77660
O139        O  0.48258738  0.38449014  0.05708598    -0.77690
O140        O  0.48292407  0.38424485  0.44332048    -0.77340
O141        O  0.48423337  0.08059098  0.44354533    -0.80830
O142        O  0.08357924  0.03802665  0.50422663    -0.80260
O143        O  0.08305208  0.42455926  0.49975217    -0.78590
Eu144      Eu  0.48434138  0.05178303  0.50018367     2.39770
Eu145      Eu  0.48338867  0.41244538  0.50030012     2.39570
Eu146      Eu  0.48404296  0.48248966  0.07054513     2.38400
Eu147      Eu  0.48412313  0.48250129  0.43014707     2.39880
Eu148      Eu  0.05464024  0.48155568  0.50059433     2.39790
O149        O  0.01882912  0.44712954  0.46552805    -0.93000
O150        O  0.01939089  0.01678666  0.03546268    -0.91890
C151        C  0.07297690  0.06964268  0.50557706     1.02170
C152        C  0.07265503  0.39296956  0.49971444     1.00890
C153        C  0.48397357  0.07119371  0.08875084     1.00280
C154        C  0.48417732  0.07103065  0.41153368     1.02060
C155        C  0.48243977  0.39404206  0.41142612     1.01210
C156        C  0.48207237  0.39422256  0.08900921     1.00060
C157        C  0.07285841  0.48100428  0.08921907     1.00110
C158        C  0.07307202  0.47969007  0.41213816     1.02730
H159        H  0.03330731  0.43233223  0.04990541     0.30100
O160        O  0.01906644  0.44694339  0.03551705    -1.05160
H161        H  0.03460603  0.03150520  0.45088556     0.32150
O162        O  0.02004156  0.01718970  0.46503024    -1.07720
C163        C  0.45242357  0.21497869  0.11402457    -0.02000
C164        C  0.48331849  0.19677830  0.12109231     0.07680
C165        C  0.01468121  0.21479821  0.12504251    -0.02120
C166        C  0.01463987  0.25098190  0.12538934    -0.02120
C167        C  0.48322929  0.26917809  0.12150337     0.07810
C168        C  0.45244759  0.25125371  0.11394797    -0.02310
Br169      Br  0.40998633  0.27649611  0.10602391    -0.00860
Br170      Br  0.40967347  0.19024182  0.10758094    -0.00930
Br171      Br  0.05715834  0.27575790  0.13333361    -0.00890
Br172      Br  0.05724841  0.18971164  0.13238991    -0.00880
C173        C  0.00668821  0.36538547  0.26838030    -0.02000
C174        C  0.47588301  0.35817503  0.28634695     0.07680
C175        C  0.44485946  0.35271310  0.26786710    -0.02120
C176        C  0.44509022  0.35231490  0.23152059    -0.02120
C177        C  0.47633958  0.35742192  0.21356132     0.07810
C178        C  0.00691156  0.36499572  0.23200531    -0.02310
Br179      Br  0.04966245  0.37151308  0.20737390    -0.00860
Br180      Br  0.04916001  0.37245384  0.29370989    -0.00930
Br181      Br  0.40309667  0.34256547  0.20620116    -0.00890
Br182      Br  0.40255121  0.34353322  0.29255355    -0.00880
C183        C  0.45417213  0.10126515  0.23173484    -0.02000
C184        C  0.48459132  0.10936153  0.21349409     0.07680
C185        C  0.01560920  0.11550542  0.23175721    -0.02120
C186        C  0.01590089  0.11491958  0.26807629    -0.02120
C187        C  0.48510856  0.10851096  0.28643993     0.07810
C188        C  0.45441071  0.10091728  0.26817570    -0.02310
Br189      Br  0.41211175  0.09335808  0.29322476    -0.00860
Br190      Br  0.41159798  0.09396655  0.20671323    -0.00930
Br191      Br  0.05811746  0.12518236  0.29274209    -0.00890
Br192      Br  0.05723228  0.12721589  0.20698222    -0.00880
C193        C  0.01571924  0.21514685  0.37070771    -0.02000
C194        C  0.48535577  0.19663078  0.37835473     0.07680
C195        C  0.45500280  0.21454223  0.38806200    -0.02120
C196        C  0.45422217  0.25083522  0.38707821    -0.02120
C197        C  0.48389672  0.26913462  0.37677193     0.07810
C198        C  0.01491838  0.25128489  0.36960111    -0.02310
Br199      Br  0.05560840  0.27635952  0.35547755    -0.00860
Br200      Br  0.05803865  0.19087223  0.35980995    -0.00930
Br201      Br  0.41154067  0.27537316  0.39598713    -0.00890
Br202      Br  0.41372160  0.18935068  0.39972836    -0.00880
C203        C  0.25383938  0.45392676  0.13044445    -0.02000
C204        C  0.27058292  0.48537370  0.12441168     0.07680
C205        C  0.25103301  0.01506540  0.11629947    -0.02120
C206        C  0.21455109  0.01387161  0.11703425    -0.02120
C207        C  0.19781844  0.48286597  0.12567210     0.07810
C208        C  0.21754658  0.45260619  0.13063141    -0.02310
Br209      Br  0.19491460  0.40946799  0.13907978    -0.00860
Br210      Br  0.28080545  0.41326673  0.14116633    -0.00930
Br211      Br  0.18771844  0.05511833  0.10875743    -0.00890
Br212      Br  0.27439653  0.05781484  0.10688276    -0.00880
C213        C  0.11935829  0.44178189  0.23220046    -0.02000
C214        C  0.10627463  0.47062260  0.21427356     0.07680
C215        C  0.08842712  0.99660859  0.23264155    -0.02120
C216        C  0.08805112  0.99601576  0.26904700    -0.02120
C217        C  0.10570975  0.46957085  0.28692873     0.07810
C218        C  0.11927555  0.44133846  0.26840475    -0.02310
Br219      Br  0.13897521  0.40249111  0.29263449    -0.00860
Br220      Br  0.13800722  0.40298010  0.20730572    -0.00930
Br221      Br  0.06562503  0.03267598  0.29423257    -0.00890
Br222      Br  0.06666623  0.03420119  0.20826460    -0.00880
C223        C  0.34488103  0.52916579  0.23159693    -0.02000
C224        C  0.36083646  0.50174427  0.21354284     0.07680
C225        C  0.38027555  0.47688126  0.23202106    -0.02120
C226        C  0.38043070  0.47732135  0.26846392    -0.02120
C227        C  0.36113016  0.50262283  0.28645937     0.07810
C228        C  0.34503247  0.52960628  0.26786285    -0.02310
Br229      Br  0.32143921  0.56648577  0.29208338    -0.00860
Br230      Br  0.32113741  0.56547282  0.20665090    -0.00930
Br231      Br  0.40422920  0.44109297  0.29328469    -0.00890
Br232      Br  0.40384569  0.44006622  0.20788141    -0.00880
C233        C  0.25447328  0.45501556  0.36995000    -0.02000
C234        C  0.27054660  0.48710005  0.37454665     0.07680
C235        C  0.25031335  0.01684945  0.38040696    -0.02120
C236        C  0.21389648  0.01471297  0.37981429    -0.02120
C237        C  0.19781709  0.48257796  0.37481487     0.07810
C238        C  0.21823239  0.45259859  0.37117774    -0.02310
Br239      Br  0.19642456  0.40848170  0.36569295    -0.00860
Br240      Br  0.28212438  0.41529898  0.35783654    -0.00930
Br241      Br  0.18609498  0.05610470  0.38184850    -0.00890
Br242      Br  0.27257958  0.06091421  0.38568341    -0.00880
C243        C  0.08286191  0.21297551  0.49017542    -0.02000
C244        C  0.10074255  0.19565238  0.51695464     0.07680
C245        C  0.11608334  0.21513079  0.04384611    -0.02120
C246        C  0.11830095  0.25111867  0.04111708    -0.02120
C247        C  0.10441018  0.26799828  0.51199013     0.07810
C248        C  0.08452936  0.24919039  0.48786784    -0.02310
Br249      Br  0.06199366  0.27268960  0.45008031    -0.00860
Br250      Br  0.05889698  0.18734855  0.45477573    -0.00930
Br251      Br  0.14191283  0.27723763  0.07650249    -0.00890
Br252      Br  0.13689918  0.19217757  0.08312233    -0.00880
C253        C  0.25369935  0.07946191  0.50237537    -0.02000
C254        C  0.27172925  0.10525647  0.52144093     0.07680
C255        C  0.25134058  0.12985396  0.03866283    -0.02120
C256        C  0.21965370  0.13828956  0.02397535    -0.02120
C257        C  0.19877207  0.11162910  0.51036594     0.07810
C258        C  0.21681588  0.08125977  0.49910071    -0.02310
Br259      Br  0.19421210  0.04486046  0.47363026    -0.00860
Br260      Br  0.27846498  0.04248626  0.47960624    -0.00930
Br261      Br  0.22427812  0.17998755  0.99719216    -0.00890
Br262      Br  0.26957453  0.15987074  0.07394409    -0.00880
C263        C  0.21724370  0.36191222  0.01567527    -0.02000
C264        C  0.19672938  0.35323744  0.98687327     0.07680
C265        C  0.21264485  0.34754139  0.45468258    -0.02120
C266        C  0.24890789  0.35067861  0.45126731    -0.02120
C267        C  0.26975449  0.35894764  0.98026673     0.07810
C268        C  0.25350967  0.36473931  0.01254825    -0.02310
Br269      Br  0.28091561  0.37184190  0.05379495    -0.00860
Br270      Br  0.19567396  0.36575481  0.06030484    -0.00930
Br271      Br  0.27021122  0.34088824  0.40734452    -0.00890
Br272      Br  0.18484524  0.33217887  0.41617586    -0.00880
C273        C  0.32627349  0.24822999  0.99000202    -0.02000
C274        C  0.35631986  0.26875145  0.49175665     0.07680
C275        C  0.38869531  0.25047410  0.49310420    -0.02120
C276        C  0.38861567  0.21371674  0.49599807    -0.02120
C277        C  0.35775330  0.19515012  0.48794327     0.07810
C278        C  0.32897636  0.21487338  0.97813270    -0.02310
Br279      Br  0.29540715  0.19873571  0.94510802    -0.00860
Br280      Br  0.28354577  0.26011538  0.01332026    -0.00930
Br281      Br  0.43033501  0.19091093  0.51167629    -0.00890
Br282      Br  0.43307118  0.27288487  0.48969979    -0.00880
C283        C  0.36657278  0.36824320  0.49715097     0.02970
C284        C  0.37458586  0.33278150  0.00052380    -0.13170
C285        C  0.35119820  0.30745427  0.98861774     0.00480
C286        C  0.31975312  0.31939286  0.97417438    -0.11700
C287        C  0.30804098  0.35298162  0.47932018     0.02970
C288        C  0.33219744  0.37801022  0.48902101    -0.11120
H289        H  0.39864252  0.32580752  0.01275305     0.08560
H290        H  0.30212224  0.30161903  0.96192931     0.06090
H291        H  0.32407491  0.40472613  0.49040542     0.05940
C292        C  0.36886986  0.09753378  0.00226628     0.02970
C293        C  0.33565922  0.08909881  0.01462727    -0.13170
C294        C  0.30920738  0.11373961  0.01502814     0.00480
C295        C  0.31807256  0.14787534  0.00708085    -0.11700
C296        C  0.35128178  0.15759822  0.99562165     0.02970
C297        C  0.37608691  0.13145132  0.99161635    -0.11120
H298        H  0.33042357  0.06334018  0.02377869     0.08560
H299        H  0.29829540  0.16736601  0.00930583     0.06090
H300        H  0.40071993  0.13701235  0.97978245     0.05940
C301        C  0.09889366  0.09758282  0.00873671     0.02970
C302        C  0.13491086  0.09046949  0.00958140    -0.13170
C303        C  0.15958440  0.11733599  0.00894093     0.00480
C304        C  0.14616859  0.15112733  0.01098956    -0.11700
C305        C  0.11095827  0.15876514  0.01300856     0.02970
C306        C  0.08726097  0.13196567  0.01138617    -0.11120
H307        H  0.14297833  0.06409308  0.01245493     0.08560
H308        H  0.16250149  0.17292872  0.01320390     0.06090
H309        H  0.05987275  0.13802749  0.01277569     0.05940
C310        C  0.09915230  0.36498371  0.99934170     0.02970
C311        C  0.13448600  0.37248214  0.49256559    -0.13170
C312        C  0.15930190  0.34584842  0.49167243     0.00480
C313        C  0.14892828  0.31186206  0.99749668    -0.11700
C314        C  0.11428216  0.30416099  0.00489938     0.02970
C315        C  0.08967786  0.33070347  0.00592241    -0.11120
H316        H  0.14269202  0.39872970  0.48805004     0.08560
H317        H  0.16807264  0.29131900  0.99697981     0.06090
H318        H  0.06308320  0.32439075  0.01201289     0.05940
C319        C  0.36841244  0.49124239  0.88436259     0.02970
C320        C  0.33301438  0.48857207  0.89280620    -0.13170
C321        C  0.30774373  0.49034648  0.86683878     0.00480
C322        C  0.31762891  0.49395690  0.83242833    -0.11700
C323        C  0.35246406  0.49794350  0.82350703     0.02970
C324        C  0.37782129  0.49695103  0.84960000    -0.11120
H325        H  0.32498291  0.48469832  0.91930845     0.08560
H326        H  0.29788441  0.49404168  0.81239676     0.06090
H327        H  0.40476409  0.50030333  0.84266373     0.05940
C328        C  0.09987442  0.47831101  0.88482968     0.02970
C329        C  0.09007983  0.47383497  0.84995824    -0.13170
C330        C  0.11506533  0.47381156  0.82381492     0.00480
C331        C  0.15001888  0.47779642  0.83255251    -0.11700
C332        C  0.16036136  0.48087994  0.86704117     0.02970
C333        C  0.13534365  0.48143807  0.89319812    -0.11120
H334        H  0.06310084  0.47045997  0.84294355     0.08560
H335        H  0.16945289  0.47781885  0.81236260     0.06090
H336        H  0.14363063  0.48425313  0.91982843     0.05940
C337        C  0.09976726  0.48018559  0.61654494     0.02970
C338        C  0.09028099  0.47578955  0.65139454    -0.13170
C339        C  0.11551168  0.47550835  0.67747065     0.00480
C340        C  0.15044480  0.47940628  0.66862611    -0.11700
C341        C  0.16044687  0.48255945  0.63403992     0.02970
C342        C  0.13511596  0.48322536  0.60805983    -0.11120
H343        H  0.06335948  0.47238389  0.65841343     0.08560
H344        H  0.17010173  0.47900523  0.68872737     0.06090
H345        H  0.14311819  0.48573227  0.58137810     0.05940
C346        C  0.36843796  0.48933637  0.61585752     0.02970
C347        C  0.37770538  0.49526607  0.65069398    -0.13170
C348        C  0.35224746  0.49639747  0.67648789     0.00480
C349        C  0.31745300  0.49220569  0.66718561    -0.11700
C350        C  0.30773684  0.48832958  0.63264215     0.02970
C351        C  0.33311185  0.48651085  0.60699842    -0.11120
H352        H  0.40460438  0.49882594  0.65790070     0.08560
H353        H  0.29761901  0.49251635  0.68698663     0.06090
H354        H  0.32519839  0.48259460  0.58039368     0.05940
C355        C  0.48391917  0.09851061  0.88467347     0.02970
C356        C  0.48398281  0.13363753  0.89445132    -0.13170
C357        C  0.48376879  0.15959523  0.86929524     0.00480
C358        C  0.48322441  0.15061047  0.83431480    -0.11700
C359        C  0.48379329  0.11612421  0.82397174     0.02970
C360        C  0.48393700  0.09003698  0.84909319    -0.11120
H361        H  0.48448843  0.14097444  0.92147253     0.08560
H362        H  0.48314873  0.17071962  0.81488745     0.06090
H363        H  0.48433256  0.06336872  0.84080763     0.05940
C364        C  0.48125254  0.36687811  0.88434373     0.02970
C365        C  0.48252663  0.33172387  0.89357804    -0.13170
C366        C  0.48125938  0.30608039  0.86807953     0.00480
C367        C  0.47856249  0.31536066  0.83332530    -0.11700
C368        C  0.47741118  0.34997450  0.82361109     0.02970
C369        C  0.47875934  0.37575025  0.84903410    -0.11120
H370        H  0.48476932  0.32411762  0.92041863     0.08560
H371        H  0.47786431  0.29545631  0.81362018     0.06090
H372        H  0.47791907  0.40250275  0.84115566     0.05940
C373        C  0.48334295  0.09881501  0.61546204     0.02970
C374        C  0.48351018  0.09062573  0.65102810    -0.13170
C375        C  0.48293861  0.11689713  0.67602508     0.00480
C376        C  0.48189396  0.15132023  0.66557184    -0.11700
C377        C  0.48210325  0.15994458  0.63054130     0.02970
C378        C  0.48273092  0.13381632  0.60552403    -0.11120
H379        H  0.48437238  0.06402926  0.65941187     0.08560
H380        H  0.48170163  0.17160692  0.68489268     0.06090
H381        H  0.48305160  0.14094766  0.57847561     0.05940
C382        C  0.48119065  0.36691799  0.61576417     0.02970
C383        C  0.47902312  0.37543250  0.65117836    -0.13170
C384        C  0.47814436  0.34939241  0.67623309     0.00480
C385        C  0.47954805  0.31485089  0.66599731    -0.11700
C386        C  0.48166919  0.30598981  0.63103832     0.02970
C387        C  0.48249116  0.33189770  0.60598966    -0.11120
H388        H  0.47800395  0.40210891  0.65940809     0.08560
H389        H  0.47906065  0.29472264  0.68538235     0.06090
H390        H  0.48423043  0.32456623  0.57901919     0.05940
O391        O  0.42601338  0.38450567  0.00079620    -0.80290
O392        O  0.42779553  0.08062964  0.99992083    -0.81840
O393        O  0.38545874  0.48505569  0.55702344    -0.78860
O394        O  0.38540132  0.48640005  0.94336067    -0.77240
O395        O  0.42732113  0.48661173  0.90175456    -0.79030
O396        O  0.42738178  0.48544486  0.59890941    -0.79970
O397        O  0.38591629  0.03916660  0.00092632    -0.81290
O398        O  0.38446222  0.42669021  0.00027835    -0.81580
Eu399      Eu  0.41380601  0.48265989  0.00027134     2.39200
O400        O  0.44894320  0.01728113  0.96525326    -0.89090
O401        O  0.44848452  0.44746578  0.53572734    -0.92700
C402        C  0.39406863  0.39478140  0.00031166     1.01990
C403        C  0.39593657  0.07077925  0.00072105     1.01810
C404        C  0.39545094  0.48634708  0.58889436     1.01760
C405        C  0.39539940  0.48789650  0.91156556     0.99620
H406        H  0.43487460  0.03219710  0.54949089     0.29360
O407        O  0.44912312  0.01747584  0.53523008    -1.01480
H408        H  0.43371817  0.43354153  0.95022260     0.29400
O409        O  0.44848481  0.44758449  0.96476916    -1.04020
O410        O  0.04092979  0.07904547  0.00407378    -0.81250
O411        O  0.03991308  0.38264449  0.99997987    -0.80780
O412        O  0.48450417  0.03949282  0.59894109    -0.79220
O413        O  0.48435470  0.03925549  0.90142862    -0.82560
O414        O  0.48263378  0.42581917  0.90153465    -0.80420
O415        O  0.48229684  0.42596260  0.59911574    -0.79070
O416        O  0.08295076  0.48080045  0.55745450    -0.80590
O417        O  0.08324684  0.48051621  0.94396073    -0.82510
O418        O  0.04089301  0.48173101  0.59891258    -0.79250
O419        O  0.04106258  0.48011858  0.90232126    -0.81930
O420        O  0.48372431  0.08060787  0.55675943    -0.77660
O421        O  0.48258730  0.38449020  0.55708597    -0.77690
O422        O  0.48292418  0.38424482  0.94332047    -0.77340
O423        O  0.48423324  0.08059096  0.94354533    -0.80830
O424        O  0.08357959  0.03802660  0.00422679    -0.80260
O425        O  0.08218187  0.42398241  0.99975360    -0.78590
Eu426      Eu  0.48434124  0.05178299  0.00018366     2.39770
Eu427      Eu  0.48338877  0.41244532  0.00030012     2.39570
Eu428      Eu  0.48404290  0.48248972  0.57054513     2.38400
Eu429      Eu  0.48412319  0.48250125  0.93014709     2.39880
Eu430      Eu  0.05463290  0.48152374  0.00059365     2.39790
O431        O  0.01884005  0.44712012  0.96553871    -0.93000
O432        O  0.01939081  0.01678668  0.53546266    -0.91890
C433        C  0.07297716  0.06964259  0.00557725     1.02170
C434        C  0.07203156  0.39228636  0.99968822     1.00890
C435        C  0.48397367  0.07119375  0.58875086     1.00280
C436        C  0.48417723  0.07103063  0.91153368     1.02060
C437        C  0.48243988  0.39404204  0.91142611     1.01210
C438        C  0.48207231  0.39422261  0.58900919     1.00060
C439        C  0.07285726  0.48100436  0.58922002     1.00110
C440        C  0.07307332  0.47969033  0.91213902     1.02730
H441        H  0.03329531  0.43236221  0.54993913     0.30100
O442        O  0.01905584  0.44695630  0.53553087    -1.05160
H443        H  0.03460623  0.03150533  0.95088548     0.32150
O444        O  0.02004165  0.01718971  0.96503027    -1.07720
C445        C  0.45242368  0.21497873  0.61402444    -0.02000
C446        C  0.48331859  0.19677835  0.62109228     0.07680
C447        C  0.01468107  0.21479820  0.62504272    -0.02120
C448        C  0.01463975  0.25098188  0.62538952    -0.02120
C449        C  0.48322937  0.26917813  0.62150335     0.07810
C450        C  0.45244769  0.25125375  0.61394786    -0.02310
Br451      Br  0.40998644  0.27649614  0.60602371    -0.00860
Br452      Br  0.40967362  0.19024184  0.60758062    -0.00930
Br453      Br  0.05715821  0.27575787  0.63333392    -0.00890
Br454      Br  0.05724821  0.18971162  0.63239040    -0.00880
C455        C  0.00668819  0.36538557  0.76838028    -0.02000
C456        C  0.47588311  0.35817504  0.78634693     0.07680
C457        C  0.44485955  0.35271311  0.76786710    -0.02120
C458        C  0.44509029  0.35231491  0.73152059    -0.02120
C459        C  0.47633965  0.35742196  0.71356131     0.07810
C460        C  0.00691153  0.36499579  0.73200529    -0.02310
Br461      Br  0.04966241  0.37151314  0.70737386    -0.00860
Br462      Br  0.04916000  0.37245397  0.79370985    -0.00930
Br463      Br  0.40309674  0.34256546  0.70620118    -0.00890
Br464      Br  0.40255131  0.34353321  0.79255356    -0.00880
C465        C  0.45417214  0.10126523  0.73173483    -0.02000
C466        C  0.48459133  0.10936159  0.71349409     0.07680
C467        C  0.01560918  0.11550529  0.73175720    -0.02120
C468        C  0.01590090  0.11491945  0.76807628    -0.02120
C469        C  0.48510856  0.10851099  0.78643993     0.07810
C470        C  0.45441071  0.10091734  0.76817569    -0.02310
Br471      Br  0.41211175  0.09335816  0.79322474    -0.00860
Br472      Br  0.41159799  0.09396666  0.70671321    -0.00930
Br473      Br  0.05811750  0.12518215  0.79274206    -0.00890
Br474      Br  0.05723226  0.12721567  0.70698218    -0.00880
C475        C  0.01571929  0.21514689  0.87070750    -0.02000
C476        C  0.48535579  0.19663077  0.87835475     0.07680
C477        C  0.45500284  0.21454225  0.88806205    -0.02120
C478        C  0.45422223  0.25083524  0.88707824    -0.02120
C479        C  0.48389678  0.26913461  0.87677191     0.07810
C480        C  0.01491841  0.25128494  0.86960089    -0.02310
Br481      Br  0.05560837  0.27635956  0.85547717    -0.00860
Br482      Br  0.05803868  0.19087229  0.85980959    -0.00930
Br483      Br  0.41154076  0.27537321  0.89598721    -0.00890
Br484      Br  0.41372164  0.18935073  0.89972849    -0.00880
C485        C  0.25383936  0.45392683  0.63044450    -0.02000
C486        C  0.27058288  0.48537377  0.62441168     0.07680
C487        C  0.25103297  0.01506545  0.61629931    -0.02120
C488        C  0.21455105  0.01387164  0.61703411    -0.02120
C489        C  0.19781840  0.48286600  0.62567208     0.07810
C490        C  0.21754656  0.45260624  0.63063146    -0.02310
Br491      Br  0.19491461  0.40946804  0.63907990    -0.00860
Br492      Br  0.28080545  0.41326682  0.64116642    -0.00930
Br493      Br  0.18771836  0.05511831  0.60875719    -0.00890
Br494      Br  0.27439645  0.05781489  0.60688245    -0.00880
C495        C  0.11935825  0.44178190  0.73220047    -0.02000
C496        C  0.10627455  0.47062256  0.71427352     0.07680
C497        C  0.08842686  0.99660842  0.73264139    -0.02120
C498        C  0.08805077  0.99601562  0.76904683    -0.02120
C499        C  0.10570962  0.46957091  0.78692867     0.07810
C500        C  0.11927552  0.44133853  0.76840475    -0.02310
Br501      Br  0.13897536  0.40249132  0.79263459    -0.00860
Br502      Br  0.13800724  0.40298010  0.70730579    -0.00930
Br503      Br  0.06562440  0.03267573  0.79423232    -0.00890
Br504      Br  0.06666589  0.03420094  0.70826437    -0.00880
C505        C  0.34488108  0.52916580  0.73159692    -0.02000
C506        C  0.36083647  0.50174428  0.71354283     0.07680
C507        C  0.38027558  0.47688126  0.73202102    -0.02120
C508        C  0.38043076  0.47732135  0.76846388    -0.02120
C509        C  0.36113026  0.50262283  0.78645936     0.07810
C510        C  0.34503257  0.52960631  0.76786284    -0.02310
Br511      Br  0.32143938  0.56648583  0.79208338    -0.00860
Br512      Br  0.32113746  0.56547285  0.70665091    -0.00930
Br513      Br  0.40422929  0.44109296  0.79328463    -0.00890
Br514      Br  0.40384568  0.44006621  0.70788135    -0.00880
C515        C  0.25447321  0.45501591  0.86995043    -0.02000
C516        C  0.27054659  0.48710043  0.87454656     0.07680
C517        C  0.25031330  0.01685021  0.88040568    -0.02120
C518        C  0.21389643  0.01471383  0.87981279    -0.02120
C519        C  0.19781706  0.48257852  0.87481458     0.07810
C520        C  0.21823230  0.45259904  0.87117808    -0.02310
Br521      Br  0.19642437  0.40848213  0.86569384    -0.00860
Br522      Br  0.28212426  0.41529907  0.85783775    -0.00930
Br523      Br  0.18609502  0.05610572  0.88184512    -0.00890
Br524      Br  0.27257960  0.06091506  0.88568103    -0.00880
C525        C  0.08286097  0.21297578  0.99017479    -0.02000
C526        C  0.10074207  0.19565240  0.01695365     0.07680
C527        C  0.11608376  0.21513116  0.54384696    -0.02120
C528        C  0.11830053  0.25112003  0.54111691    -0.02120
C529        C  0.10442464  0.26799181  0.01198839     0.07810
C530        C  0.08453007  0.24919078  0.98786756    -0.02310
Br531      Br  0.06199311  0.27268976  0.95007948    -0.00860
Br532      Br  0.05889583  0.18734882  0.95477536    -0.00930
Br533      Br  0.14191251  0.27723819  0.57650303    -0.00890
Br534      Br  0.13689880  0.19217804  0.58312382    -0.00880
C535        C  0.25369898  0.07946249  0.00237426    -0.02000
C536        C  0.27172894  0.10525592  0.02144124     0.07680
C537        C  0.25134075  0.12985523  0.53866133    -0.02120
C538        C  0.21965375  0.13828965  0.52397358    -0.02120
C539        C  0.19877204  0.11163001  0.01036538     0.07810
C540        C  0.21681563  0.08126101  0.99909910    -0.02310
Br541      Br  0.19421151  0.04486328  0.97362667    -0.00860
Br542      Br  0.27846445  0.04248745  0.97960399    -0.00930
Br543      Br  0.22427699  0.17998528  0.49718647    -0.00890
Br544      Br  0.26957407  0.15987375  0.57394136    -0.00880
C545        C  0.21724383  0.36191198  0.51567556    -0.02000
C546        C  0.19673472  0.35322818  0.48687325     0.07680
C547        C  0.21264434  0.34754118  0.95468263    -0.02120
C548        C  0.24890798  0.35067804  0.95126718    -0.02120
C549        C  0.26975442  0.35894785  0.48026690     0.07810
C550        C  0.25350964  0.36473954  0.51254851    -0.02310
Br551      Br  0.28091571  0.37184176  0.55379514    -0.00860
Br552      Br  0.19567416  0.36575449  0.56030535    -0.00930
Br553      Br  0.27021149  0.34088753  0.90734448    -0.00890
Br554      Br  0.18484534  0.33217855  0.91617582    -0.00880
C555        C  0.32627368  0.24823009  0.49000094    -0.02000
C556        C  0.35631976  0.26875125  0.99175731     0.07680
C557        C  0.38869516  0.25047382  0.99310480    -0.02120
C558        C  0.38861543  0.21371648  0.99599891    -0.02120
C559        C  0.35775294  0.19514990  0.98794450     0.07810
C560        C  0.32897680  0.21487361  0.47813128    -0.02310
Br561      Br  0.29540790  0.19873614  0.44510621    -0.00860
Br562      Br  0.28354585  0.26011489  0.51331928    -0.00930
Br563      Br  0.43033483  0.19091064  0.01167692    -0.00890
Br564      Br  0.43307104  0.27288448  0.98969998    -0.00880
C565        C  0.36657293  0.86824301  0.99715088     0.02970
C566        C  0.37458593  0.83278171  0.50052349    -0.13170
C567        C  0.35119831  0.80745453  0.48861728     0.00480
C568        C  0.31975313  0.81939316  0.47417416    -0.11700
C569        C  0.30804113  0.85298137  0.97932008     0.02970
C570        C  0.33219760  0.87801000  0.98902085    -0.11120
H571        H  0.39864262  0.82580770  0.51275264     0.08560
H572        H  0.30212224  0.80161943  0.46192899     0.06090
H573        H  0.32407507  0.90472592  0.99040516     0.05940
C574        C  0.36887031  0.59753432  0.50226598     0.02970
C575        C  0.33565976  0.58909973  0.51462737    -0.13170
C576        C  0.30920775  0.61374037  0.51502704     0.00480
C577        C  0.31807275  0.64787578  0.50707821    -0.11700
C578        C  0.35128219  0.65759855  0.49561958     0.02970
C579        C  0.37608742  0.63145161  0.49161525    -0.11120
H580        H  0.33042434  0.56334148  0.52377999     0.08560
H581        H  0.29829531  0.66736632  0.50930184     0.06090
H582        H  0.40072054  0.63701239  0.47978143     0.05940
C583        C  0.09889332  0.59758270  0.50873659     0.02970
C584        C  0.13491033  0.59046873  0.50958143    -0.13170
C585        C  0.15958436  0.61733472  0.50894279     0.00480
C586        C  0.14616916  0.65112624  0.51099420    -0.11700
C587        C  0.11095881  0.65876475  0.51301094     0.02970
C588        C  0.08726112  0.63196567  0.51138645    -0.11120
H589        H  0.14297704  0.56409212  0.51245422     0.08560
H590        H  0.16250284  0.67292692  0.51321288     0.06090
H591        H  0.05987293  0.63802782  0.51277508     0.05940
C592        C  0.09933051  0.86517282  0.49934148     0.02970
C593        C  0.13448616  0.87248206  0.99256557    -0.13170
C594        C  0.15930202  0.84584830  0.99167240     0.00480
C595        C  0.14891257  0.81185051  0.49750263    -0.11700
C596        C  0.11423881  0.80419315  0.50490227     0.02970
C597        C  0.08964925  0.83084839  0.50589365    -0.11120
H598        H  0.14269219  0.89872960  0.98804998     0.08560
H599        H  0.16806341  0.79131166  0.49698458     0.06090
H600        H  0.06300363  0.82466257  0.51194640     0.05940
C601        C  0.36841252  0.99124244  0.38436260     0.02970
C602        C  0.33301446  0.98857214  0.39280621    -0.13170
C603        C  0.30774381  0.99034653  0.36683879     0.00480
C604        C  0.31762900  0.99395692  0.33242834    -0.11700
C605        C  0.35246414  0.99794350  0.32350704     0.02970
C606        C  0.37782138  0.99695105  0.34960001    -0.11120
H607        H  0.32498299  0.98469841  0.41930847     0.08560
H608        H  0.29788450  0.99404167  0.31239676     0.06090
H609        H  0.40476417  0.00030334  0.34266373     0.05940
C610        C  0.09987449  0.97831077  0.38482984     0.02970
C611        C  0.09007996  0.97383488  0.34995837    -0.13170
C612        C  0.11506541  0.97381149  0.32381503     0.00480
C613        C  0.15001896  0.97779640  0.33255261    -0.11700
C614        C  0.16036143  0.98087995  0.36704127     0.02970
C615        C  0.13534372  0.98143805  0.39319831    -0.11120
H616        H  0.06310094  0.97045985  0.34294368     0.08560
H617        H  0.16945295  0.97781883  0.31236268     0.06090
H618        H  0.14363059  0.98425307  0.41982864     0.05940
C619        C  0.09976738  0.98018548  0.11654508     0.02970
C620        C  0.09028107  0.97578943  0.15139467    -0.13170
C621        C  0.11551175  0.97550820  0.17747080     0.00480
C622        C  0.15044487  0.97940612  0.16862629    -0.11700
C623        C  0.16044697  0.98255930  0.13404012     0.02970
C624        C  0.13511608  0.98322523  0.10806001    -0.11120
H625        H  0.06335955  0.97238377  0.15841354     0.08560
H626        H  0.17010179  0.97900505  0.18872757     0.06090
H627        H  0.14311834  0.98573216  0.08137829     0.05940
C628        C  0.36843806  0.98933619  0.11585754     0.02970
C629        C  0.37770550  0.99526594  0.15069399    -0.13170
C630        C  0.35224760  0.99639734  0.17648792     0.00480
C631        C  0.31745314  0.99220550  0.16718568    -0.11700
C632        C  0.30773696  0.98832932  0.13264223     0.02970
C633        C  0.33311194  0.98651060  0.10699848    -0.11120
H634        H  0.40460450  0.99882586  0.15790068     0.08560
H635        H  0.29761916  0.99251616  0.18698672     0.06090
H636        H  0.32519846  0.98259433  0.08039375     0.05940
C637        C  0.48391912  0.59851062  0.38467344     0.02970
C638        C  0.48398274  0.63363753  0.39445130    -0.13170
C639        C  0.48376871  0.65959524  0.36929523     0.00480
C640        C  0.48322431  0.65061050  0.33431479    -0.11700
C641        C  0.48379319  0.61612425  0.32397171     0.02970
C642        C  0.48393693  0.59003700  0.34909315    -0.11120
H643        H  0.48448836  0.64097443  0.42147252     0.08560
H644        H  0.48314862  0.67071966  0.31488746     0.06090
H645        H  0.48433249  0.56336875  0.34080757     0.05940
C646        C  0.48125256  0.86687812  0.38434377     0.02970
C647        C  0.48252661  0.83172389  0.39357810    -0.13170
C648        C  0.48125935  0.80608039  0.36807961     0.00480
C649        C  0.47856248  0.81536065  0.33332537    -0.11700
C650        C  0.47741118  0.84997448  0.32361114     0.02970
C651        C  0.47875936  0.87575025  0.34903414    -0.11120
H652        H  0.48476930  0.82411765  0.42041869     0.08560
H653        H  0.47786429  0.79545629  0.31362026     0.06090
H654        H  0.47791911  0.90250274  0.34115569     0.05940
C655        C  0.48334287  0.59881497  0.11546200     0.02970
C656        C  0.48351011  0.59062571  0.15102807    -0.13170
C657        C  0.48293852  0.61689712  0.17602504     0.00480
C658        C  0.48189388  0.65132021  0.16557179    -0.11700
C659        C  0.48210317  0.65994455  0.13054124     0.02970
C660        C  0.48273084  0.63381628  0.10552398    -0.11120
H661        H  0.48437231  0.56402924  0.15941185     0.08560
H662        H  0.48170154  0.67160691  0.18489262     0.06090
H663        H  0.48305152  0.64094761  0.07847556     0.05940
C664        C  0.48119068  0.86691795  0.11576420     0.02970
C665        C  0.47902313  0.87543247  0.15117839    -0.13170
C666        C  0.47814432  0.84939238  0.17623312     0.00480
C667        C  0.47954798  0.81485085  0.16599733    -0.11700
C668        C  0.48166913  0.80598978  0.13103835     0.02970
C669        C  0.48249115  0.83189767  0.10598968    -0.11120
H670        H  0.47800399  0.90210888  0.15940812     0.08560
H671        H  0.47906055  0.79472260  0.18538237     0.06090
H672        H  0.48423043  0.82456620  0.07901922     0.05940
O673        O  0.42601339  0.88450584  0.50079619    -0.80290
O674        O  0.42779583  0.58062992  0.49992079    -0.81840
O675        O  0.38545883  0.98505548  0.05702345    -0.78860
O676        O  0.38540140  0.98640015  0.44336067    -0.77240
O677        O  0.42732121  0.98661177  0.40175457    -0.79030
O678        O  0.42738186  0.98544476  0.09890941    -0.79970
O679        O  0.38591646  0.53916702  0.50092638    -0.81290
O680        O  0.38446225  0.92669040  0.50027834    -0.81580
Eu681      Eu  0.41380608  0.98266002  0.50027133     2.39200
O682        O  0.44894316  0.51728124  0.46525324    -0.89090
O683        O  0.44848462  0.94746566  0.03572736    -0.92700
C684        C  0.39406865  0.89478159  0.50031164     1.01990
C685        C  0.39593687  0.57077965  0.50072104     1.01810
C686        C  0.39545102  0.98634692  0.08889437     1.01760
C687        C  0.39539949  0.98789657  0.41156556     0.99620
H688        H  0.43487449  0.53219705  0.04949091     0.29360
O689        O  0.44912306  0.51747575  0.03523005    -1.01480
H690        H  0.43371829  0.93354167  0.45022268     0.29400
O691        O  0.44848487  0.94758457  0.46476917    -1.04020
O692        O  0.04092932  0.57904580  0.50407345    -0.81250
O693        O  0.04049411  0.88376720  0.49999806    -0.80780
O694        O  0.48450410  0.53949278  0.09894107    -0.79220
O695        O  0.48435465  0.53925549  0.40142857    -0.82560
O696        O  0.48263382  0.92581920  0.40153467    -0.80420
O697        O  0.48229691  0.92596256  0.09911576    -0.79070
O698        O  0.08295093  0.98080040  0.05745464    -0.80590
O699        O  0.08324138  0.98051818  0.44395860    -0.82510
O700        O  0.04089314  0.98173096  0.09891268    -0.79250
O701        O  0.04106234  0.98011873  0.40232081    -0.81930
O702        O  0.48372423  0.58060782  0.05675940    -0.77660
O703        O  0.48258739  0.88449016  0.05708599    -0.77690
O704        O  0.48292423  0.88424486  0.44332050    -0.77340
O705        O  0.48423324  0.58059094  0.44354529    -0.80830
O706        O  0.08357890  0.53802670  0.50422646    -0.80260
O707        O  0.08305217  0.92455921  0.49975228    -0.78590
Eu708      Eu  0.48434127  0.55178301  0.50018364     2.39770
Eu709      Eu  0.48338882  0.91244538  0.50030014     2.39570
Eu710      Eu  0.48404298  0.98248967  0.07054512     2.38400
Eu711      Eu  0.48412327  0.98250129  0.43014711     2.39880
Eu712      Eu  0.05464040  0.98155569  0.50059439     2.39790
O713        O  0.01882927  0.94712955  0.46552811    -0.93000
O714        O  0.01938752  0.51678265  0.03545894    -0.91890
C715        C  0.07297662  0.56964275  0.50557688     1.02170
C716        C  0.07265513  0.89296951  0.49971460     1.00890
C717        C  0.48397359  0.57119370  0.08875083     1.00280
C718        C  0.48417720  0.57103062  0.41153363     1.02060
C719        C  0.48243992  0.89404207  0.41142614     1.01210
C720        C  0.48207238  0.89422258  0.08900922     1.00060
C721        C  0.07285740  0.98100429  0.08922015     1.00110
C722        C  0.07307216  0.97969019  0.41213823     1.02730
H723        H  0.03329557  0.93236216  0.04993925     0.30100
O724        O  0.01905606  0.94695634  0.03553091    -1.05160
H725        H  0.03460591  0.53150516  0.45088548     0.32150
O726        O  0.02004145  0.51718968  0.46503016    -1.07720
C727        C  0.45242360  0.71497871  0.11402441    -0.02000
C728        C  0.48331851  0.69677832  0.12109222     0.07680
C729        C  0.01468106  0.71479820  0.12504265    -0.02120
C730        C  0.01463974  0.75098189  0.12538949    -0.02120
C731        C  0.48322929  0.76917810  0.12150336     0.07810
C732        C  0.45244761  0.75125373  0.11394787    -0.02310
Br733      Br  0.40998636  0.77649613  0.10602376    -0.00860
Br734      Br  0.40967354  0.69024183  0.10758056    -0.00930
Br735      Br  0.05715820  0.77575786  0.13333392    -0.00890
Br736      Br  0.05724820  0.68971161  0.13239030    -0.00880
C737        C  0.00668829  0.86538546  0.26838034    -0.02000
C738        C  0.47588311  0.85817501  0.28634698     0.07680
C739        C  0.44485955  0.85271306  0.26786715    -0.02120
C740        C  0.44509028  0.85231486  0.23152063    -0.02120
C741        C  0.47633962  0.85742192  0.21356134     0.07810
C742        C  0.00691160  0.86499571  0.23200535    -0.02310
Br743      Br  0.04966246  0.87151307  0.20737390    -0.00860
Br744      Br  0.04916012  0.87245383  0.29370989    -0.00930
Br745      Br  0.40309671  0.84256541  0.20620124    -0.00890
Br746      Br  0.40255131  0.84353316  0.29255362    -0.00880
C747        C  0.45417207  0.60126519  0.23173479    -0.02000
C748        C  0.48459126  0.60936160  0.21349406     0.07680
C749        C  0.01560910  0.61550547  0.23175717    -0.02120
C750        C  0.01590079  0.61491966  0.26807625    -0.02120
C751        C  0.48510846  0.60851104  0.28643990     0.07810
C752        C  0.45441063  0.60091732  0.26817565    -0.02310
Br753      Br  0.41211167  0.59335806  0.29322469    -0.00860
Br754      Br  0.41159795  0.59396653  0.20671317    -0.00930
Br755      Br  0.05811732  0.62518254  0.29274206    -0.00890
Br756      Br  0.05723218  0.62721599  0.20698219    -0.00880
C757        C  0.01571920  0.71514681  0.37070790    -0.02000
C758        C  0.48535568  0.69663077  0.37835478     0.07680
C759        C  0.45500269  0.71454226  0.38806194    -0.02120
C760        C  0.45422210  0.75083524  0.38707816    -0.02120
C761        C  0.48389671  0.76913462  0.37677200     0.07810
C762        C  0.01491839  0.75128486  0.36960133    -0.02310
Br763      Br  0.05560849  0.77635945  0.35547795    -0.00860
Br764      Br  0.05803862  0.69087215  0.35981027    -0.00930
Br765      Br  0.41154059  0.77537322  0.39598694    -0.00890
Br766      Br  0.41372142  0.68935074  0.39972810    -0.00880
C767        C  0.25383944  0.95392661  0.13044460    -0.02000
C768        C  0.27058299  0.98537355  0.12441181     0.07680
C769        C  0.25103295  0.51506553  0.11629925    -0.02120
C770        C  0.21455102  0.51387174  0.11703400    -0.02120
C771        C  0.19781850  0.98286584  0.12567231     0.07810
C772        C  0.21754664  0.95260605  0.13063160    -0.02310
Br773      Br  0.19491467  0.90946787  0.13908004    -0.00860
Br774      Br  0.28080552  0.91326657  0.14116642    -0.00930
Br775      Br  0.18771836  0.55511842  0.10875709    -0.00890
Br776      Br  0.27439646  0.55781497  0.10688245    -0.00880
C777        C  0.11935830  0.94178177  0.23220062    -0.02000
C778        C  0.10627458  0.97062241  0.21427365     0.07680
C779        C  0.08842726  0.49660879  0.23264153    -0.02120
C780        C  0.08805130  0.49601591  0.26904698    -0.02120
C781        C  0.10570968  0.96957081  0.28692880     0.07810
C782        C  0.11927559  0.94133842  0.26840490    -0.02310
Br783      Br  0.13897549  0.90249125  0.29263477    -0.00860
Br784      Br  0.13800731  0.90297995  0.20730596    -0.00930
Br785      Br  0.06562539  0.53267619  0.29423262    -0.00890
Br786      Br  0.06666641  0.53420145  0.20826464    -0.00880
C787        C  0.34488120  0.02916574  0.23159690    -0.02000
C788        C  0.36083662  0.00174421  0.21354284     0.07680
C789        C  0.38027572  0.97688121  0.23202106    -0.02120
C790        C  0.38043088  0.97732132  0.26846392    -0.02120
C791        C  0.36113035  0.00262281  0.28645936     0.07810
C792        C  0.34503267  0.02960627  0.26786282    -0.02310
Br793      Br  0.32143944  0.06648580  0.29208332    -0.00860
Br794      Br  0.32113755  0.06547274  0.20665086    -0.00930
Br795      Br  0.40422938  0.94109294  0.29328470    -0.00890
Br796      Br  0.40384585  0.94006616  0.20788142    -0.00880
C797        C  0.25447329  0.95501596  0.36995056    -0.02000
C798        C  0.27054667  0.98710051  0.37454657     0.07680
C799        C  0.25031325  0.51684880  0.38040794    -0.02120
C800        C  0.21389638  0.51471225  0.37981543    -0.02120
C801        C  0.19781714  0.98257857  0.37481464     0.07810
C802        C  0.21823239  0.95259908  0.37117825    -0.02310
Br803      Br  0.19642446  0.90848214  0.36569420    -0.00860
Br804      Br  0.28212436  0.91529911  0.35783794    -0.00930
Br805      Br  0.18609481  0.55610385  0.38185122    -0.00890
Br806      Br  0.27257942  0.56091348  0.38568535    -0.00880
C807        C  0.08286239  0.71297536  0.49017602    -0.02000
C808        C  0.10074288  0.69565231  0.51695542     0.07680
C809        C  0.11608379  0.71513113  0.04384709    -0.02120
C810        C  0.11830058  0.75112000  0.04111702    -0.02120
C811        C  0.10441039  0.76799824  0.51199071     0.07810
C812        C  0.08452975  0.74919025  0.48786837    -0.02310
Br813      Br  0.06199415  0.77268936  0.45008070    -0.00860
Br814      Br  0.05889779  0.68734839  0.45477608    -0.00930
Br815      Br  0.14191257  0.77723817  0.07650312    -0.00890
Br816      Br  0.13689880  0.69217803  0.08312397    -0.00880
C817        C  0.25369953  0.57946138  0.50237629    -0.02000
C818        C  0.27172937  0.60525685  0.52144072     0.07680
C819        C  0.25134069  0.62985526  0.03866115    -0.02120
C820        C  0.21965370  0.63828957  0.02397335    -0.02120
C821        C  0.19877200  0.61162833  0.51036636     0.07810
C822        C  0.21681596  0.58125872  0.49910201    -0.02310
Br823      Br  0.19421246  0.54485814  0.47363315    -0.00860
Br824      Br  0.27846528  0.54248522  0.47960810    -0.00930
Br825      Br  0.22427685  0.67998491  0.99718577    -0.00890
Br826      Br  0.26957394  0.65987397  0.07394105    -0.00880
C827        C  0.21724396  0.86191208  0.01567537    -0.02000
C828        C  0.19673484  0.85322801  0.98687315     0.07680
C829        C  0.21264489  0.84754123  0.45468276    -0.02120
C830        C  0.24890792  0.85067844  0.45126740    -0.02120
C831        C  0.26975456  0.85894758  0.98026674     0.07810
C832        C  0.25350977  0.86473960  0.01254829    -0.02310
Br833      Br  0.28091582  0.87184217  0.05379487    -0.00860
Br834      Br  0.19567428  0.86575499  0.06030513    -0.00930
Br835      Br  0.27021114  0.84088779  0.40734461    -0.00890
Br836      Br  0.18484520  0.83217855  0.41617615    -0.00880
C837        C  0.32627382  0.74822993  0.99000114    -0.02000
C838        C  0.35632006  0.76875148  0.49175633     0.07680
C839        C  0.38869553  0.75047416  0.49310379    -0.02120
C840        C  0.38861590  0.71371678  0.49599741    -0.02120
C841        C  0.35775356  0.69515020  0.48794238     0.07810
C842        C  0.32897688  0.71487351  0.97813134    -0.02310
Br843      Br  0.29540802  0.69873623  0.94510615    -0.00860
Br844      Br  0.28354601  0.76011474  0.01331953    -0.00930
Br845      Br  0.43033522  0.69091091  0.51167562    -0.00890
Br846      Br  0.43307140  0.77288497  0.48969958    -0.00880
C847        C  0.36657290  0.86824322  0.49715090     0.02970
C848        C  0.37458595  0.83278151  0.00052362    -0.13170
C849        C  0.35119833  0.80745428  0.98861750     0.00480
C850        C  0.31975319  0.81939287  0.97417425    -0.11700
C851        C  0.30804107  0.85298165  0.47932015     0.02970
C852        C  0.33219755  0.87801025  0.48902098    -0.11120
H853        H  0.39864262  0.82580753  0.01275283     0.08560
H854        H  0.30212232  0.80161907  0.96192916     0.06090
H855        H  0.32407502  0.90472616  0.49040541     0.05940
C856        C  0.36887014  0.59753399  0.00226611     0.02970
C857        C  0.33565955  0.58909926  0.01462733    -0.13170
C858        C  0.30920761  0.61373998  0.01502746     0.00480
C859        C  0.31807269  0.64787550  0.00707924    -0.11700
C860        C  0.35128206  0.65759831  0.99562040     0.02970
C861        C  0.37608724  0.63145138  0.99161570    -0.11120
H862        H  0.33042404  0.56334086  0.02377947     0.08560
H863        H  0.29829537  0.66736610  0.00930338     0.06090
H864        H  0.40072032  0.63701226  0.97978185     0.05940
C865        C  0.09889346  0.59758269  0.00873661     0.02970
C866        C  0.13491052  0.59046904  0.00958139    -0.13170
C867        C  0.15958437  0.61733517  0.00894206     0.00480
C868        C  0.14616895  0.65112663  0.01099241    -0.11700
C869        C  0.11095861  0.65876488  0.01301002     0.02970
C870        C  0.08726102  0.63196566  0.01138633    -0.11120
H871        H  0.14297756  0.56409251  0.01245446     0.08560
H872        H  0.16250234  0.67292757  0.01320943     0.06090
H873        H  0.05987285  0.63802768  0.01277531     0.05940
C874        C  0.09933056  0.86517284  0.99934128     0.02970
C875        C  0.13448610  0.87248208  0.49256578    -0.13170
C876        C  0.15930202  0.84584837  0.49167272     0.00480
C877        C  0.14891251  0.81185045  0.99750220    -0.11700
C878        C  0.11423874  0.80419313  0.00490185     0.02970
C879        C  0.08964924  0.83084841  0.00589334    -0.11120
H880        H  0.14269209  0.89872962  0.48805011     0.08560
H881        H  0.16806331  0.79131156  0.99698408     0.06090
H882        H  0.06300362  0.82466262  0.01194611     0.05940
C883        C  0.36841247  0.99124243  0.88436254     0.02970
C884        C  0.33301438  0.98857228  0.89280612    -0.13170
C885        C  0.30774377  0.99034678  0.86683865     0.00480
C886        C  0.31762902  0.99395704  0.83242821    -0.11700
C887        C  0.35246418  0.99794351  0.82350696     0.02970
C888        C  0.37782138  0.99695099  0.84959996    -0.11120
H889        H  0.32498286  0.98469864  0.91930837     0.08560
H890        H  0.29788454  0.99404185  0.81239661     0.06090
H891        H  0.40476419  0.00030320  0.84266371     0.05940
C892        C  0.09987446  0.97831101  0.88482973     0.02970
C893        C  0.09007986  0.97383497  0.84995829    -0.13170
C894        C  0.11506523  0.97381166  0.82381488     0.00480
C895        C  0.15001877  0.97779682  0.83255233    -0.11700
C896        C  0.16036132  0.98088053  0.86704095     0.02970
C897        C  0.13534370  0.98143854  0.89319807    -0.11120
H898        H  0.06310085  0.97045974  0.84294368     0.08560
H899        H  0.16945271  0.97781930  0.81236235     0.06090
H900        H  0.14363063  0.98425368  0.91982837     0.05940
C901        C  0.09976735  0.98018546  0.61654499     0.02970
C902        C  0.09028104  0.97578932  0.65139457    -0.13170
C903        C  0.11551170  0.97550809  0.67747071     0.00480
C904        C  0.15044482  0.97940606  0.66862622    -0.11700
C905        C  0.16044694  0.98255930  0.63404005     0.02970
C906        C  0.13511606  0.98322526  0.60805993    -0.11120
H907        H  0.06335952  0.97238362  0.65841341     0.08560
H908        H  0.17010173  0.97900499  0.68872752     0.06090
H909        H  0.14311832  0.98573223  0.58137823     0.05940
C910        C  0.36843805  0.98933629  0.61585749     0.02970
C911        C  0.37770549  0.99526599  0.65069394    -0.13170
C912        C  0.35224760  0.99639737  0.67648786     0.00480
C913        C  0.31745313  0.99220557  0.66718562    -0.11700
C914        C  0.30773695  0.98832944  0.63264216     0.02970
C915        C  0.33311193  0.98651074  0.60699842    -0.11120
H916        H  0.40460449  0.99882589  0.65790064     0.08560
H917        H  0.29761916  0.99251622  0.68698666     0.06090
H918        H  0.32519846  0.98259448  0.58039368     0.05940
C919        C  0.48391919  0.59851059  0.88467346     0.02970
C920        C  0.48398283  0.63363751  0.89445130    -0.13170
C921        C  0.48376881  0.65959521  0.86929522     0.00480
C922        C  0.48322441  0.65061045  0.83431478    -0.11700
C923        C  0.48379327  0.61612419  0.82397172     0.02970
C924        C  0.48393700  0.59003696  0.84909318    -0.11120
H925        H  0.48448845  0.64097442  0.92147252     0.08560
H926        H  0.48314872  0.67071960  0.81488744     0.06090
H927        H  0.48433255  0.56336870  0.84080761     0.05940
C928        C  0.48125256  0.86687810  0.88434374     0.02970
C929        C  0.48252665  0.83172386  0.89357806    -0.13170
C930        C  0.48125938  0.80608037  0.86807955     0.00480
C931        C  0.47856248  0.81536065  0.83332532    -0.11700
C932        C  0.47741117  0.84997448  0.82361111     0.02970
C933        C  0.47875935  0.87575024  0.84903411    -0.11120
H934        H  0.48476935  0.82411761  0.92041864     0.08560
H935        H  0.47786429  0.79545630  0.81362020     0.06090
H936        H  0.47791909  0.90250273  0.84115568     0.05940
C937        C  0.48334288  0.59881500  0.61546201     0.02970
C938        C  0.48351013  0.59062572  0.65102807    -0.13170
C939        C  0.48293855  0.61689712  0.67602506     0.00480
C940        C  0.48189388  0.65132021  0.66557182    -0.11700
C941        C  0.48210316  0.65994457  0.63054128     0.02970
C942        C  0.48273084  0.63381631  0.60552401    -0.11120
H943        H  0.48437233  0.56402925  0.65941185     0.08560
H944        H  0.48170155  0.67160690  0.68489266     0.06090
H945        H  0.48305151  0.64094765  0.57847559     0.05940
C946        C  0.48119065  0.86691799  0.61576419     0.02970
C947        C  0.47902310  0.87543250  0.65117838    -0.13170
C948        C  0.47814429  0.84939241  0.67623311     0.00480
C949        C  0.47954796  0.81485088  0.66599732    -0.11700
C950        C  0.48166911  0.80598981  0.63103833     0.02970
C951        C  0.48249113  0.83189770  0.60598967    -0.11120
H952        H  0.47800396  0.90210891  0.65940811     0.08560
H953        H  0.47906053  0.79472263  0.68538235     0.06090
H954        H  0.48423042  0.82456624  0.57901920     0.05940
O955        O  0.42601342  0.88450568  0.00079617    -0.80290
O956        O  0.42779573  0.58062972  0.99992083    -0.81840
O957        O  0.38545884  0.98505563  0.55702341    -0.78860
O958        O  0.38540132  0.98640002  0.94336064    -0.77240
O959        O  0.42732115  0.98661172  0.90175456    -0.79030
O960        O  0.42738187  0.98544483  0.59890938    -0.79970
O961        O  0.38591641  0.53916676  0.00092637    -0.81290
O962        O  0.38446224  0.92669019  0.00027830    -0.81580
Eu963      Eu  0.41380602  0.98265985  0.00027131     2.39200
O964        O  0.44894320  0.51728115  0.96525328    -0.89090
O965        O  0.44848465  0.94746577  0.53572736    -0.92700
C966        C  0.39406867  0.89478139  0.00031161     1.01990
C967        C  0.39593677  0.57077939  0.00072106     1.01810
C968        C  0.39545103  0.98634703  0.58889433     1.01760
C969        C  0.39539941  0.98789649  0.91156554     0.99620
H970        H  0.43487451  0.53219712  0.54949088     0.29360
O971        O  0.44912301  0.51747585  0.53523007    -1.01480
H972        H  0.43371827  0.93354155  0.95022263     0.29400
O973        O  0.44848484  0.94758446  0.96476914    -1.04020
O974        O  0.04092971  0.57904522  0.00407354    -0.81250
O975        O  0.04049419  0.88376726  0.99999797    -0.80780
O976        O  0.48450408  0.53949281  0.59894108    -0.79220
O977        O  0.48435469  0.53925547  0.90142861    -0.82560
O978        O  0.48263381  0.92581917  0.90153466    -0.80420
O979        O  0.48229691  0.92596260  0.59911576    -0.79070
O980        O  0.08295089  0.98080041  0.55745456    -0.80590
O981        O  0.08324145  0.98051831  0.94395854    -0.82510
O982        O  0.04089312  0.98173097  0.59891261    -0.79250
O983        O  0.04106236  0.98011882  0.90232080    -0.81930
O984        O  0.48372424  0.58060785  0.55675940    -0.77660
O985        O  0.48258737  0.88449020  0.55708599    -0.77690
O986        O  0.48292423  0.88424481  0.94332048    -0.77340
O987        O  0.48423330  0.58059093  0.94354532    -0.80830
O988        O  0.08358219  0.53802209  0.00422685    -0.80260
O989        O  0.08305228  0.92455924  0.99975220    -0.78590
Eu990      Eu  0.48434130  0.55178296  0.00018366     2.39770
Eu991      Eu  0.48338881  0.91244532  0.00030012     2.39570
Eu992      Eu  0.48404302  0.98248972  0.57054514     2.38400
Eu993      Eu  0.48412321  0.98250126  0.93014709     2.39880
Eu994      Eu  0.05464054  0.98155572  0.00059441     2.39790
O995        O  0.01882935  0.94712959  0.96552814    -0.93000
O996        O  0.01939070  0.51678667  0.53546261    -0.91890
C997        C  0.07297765  0.56964136  0.00557698     1.02170
C998        C  0.07265521  0.89296955  0.99971448     1.00890
C999        C  0.48397359  0.57119374  0.58875083     1.00280
C1000       C  0.48417725  0.57103061  0.91153367     1.02060
C1001       C  0.48243992  0.89404203  0.91142612     1.01210
C1002       C  0.48207236  0.89422262  0.58900922     1.00060
C1003       C  0.07285737  0.98100429  0.58922007     1.00110
C1004       C  0.07307220  0.97969033  0.91213818     1.02730
H1005       H  0.03329543  0.93236221  0.54993920     0.30100
O1006       O  0.01905597  0.94695632  0.53553092    -1.05160
H1007       H  0.03460407  0.53150296  0.95088761     0.32150
O1008       O  0.02003860  0.51718639  0.96503318    -1.07720
C1009       C  0.45242367  0.71497873  0.61402427    -0.02000
C1010       C  0.48331853  0.69677834  0.62109227     0.07680
C1011       C  0.01468101  0.71479821  0.62504283    -0.02120
C1012       C  0.01463969  0.75098189  0.62538965    -0.02120
C1013       C  0.48322931  0.76917813  0.62150335     0.07810
C1014       C  0.45244767  0.75125375  0.61394772    -0.02310
Br1015     Br  0.40998645  0.77649614  0.60602343    -0.00860
Br1016     Br  0.40967364  0.69024184  0.60758017    -0.00930
Br1017     Br  0.05715813  0.77575786  0.63333425    -0.00890
Br1018     Br  0.05724809  0.68971162  0.63239074    -0.00880
C1019       C  0.00668828  0.86538557  0.76838031    -0.02000
C1020       C  0.47588309  0.85817503  0.78634695     0.07680
C1021       C  0.44485953  0.85271308  0.76786713    -0.02120
C1022       C  0.44509025  0.85231488  0.73152061    -0.02120
C1023       C  0.47633960  0.85742195  0.71356132     0.07810
C1024       C  0.00691159  0.86499580  0.73200532    -0.02310
Br1025     Br  0.04966244  0.87151319  0.70737385    -0.00860
Br1026     Br  0.04916012  0.87245401  0.79370984    -0.00930
Br1027     Br  0.40309669  0.84256542  0.70620122    -0.00890
Br1028     Br  0.40255130  0.84353317  0.79255360    -0.00880
C1029       C  0.45417210  0.60126519  0.73173481    -0.02000
C1030       C  0.48459129  0.60936157  0.71349407     0.07680
C1031       C  0.01560909  0.61550543  0.73175716    -0.02120
C1032       C  0.01590079  0.61491962  0.76807624    -0.02120
C1033       C  0.48510853  0.60851096  0.78643992     0.07810
C1034       C  0.45441068  0.60091730  0.76817568    -0.02310
Br1035     Br  0.41211172  0.59335808  0.79322473    -0.00860
Br1036     Br  0.41159796  0.59396659  0.70671321    -0.00930
Br1037     Br  0.05811735  0.62518246  0.79274202    -0.00890
Br1038     Br  0.05723217  0.62721589  0.70698216    -0.00880
C1039       C  0.01571924  0.71514686  0.87070773    -0.02000
C1040       C  0.48535579  0.69663075  0.87835474     0.07680
C1041       C  0.45500283  0.71454223  0.88806201    -0.02120
C1042       C  0.45422223  0.75083521  0.88707822    -0.02120
C1043       C  0.48389678  0.76913459  0.87677192     0.07810
C1044       C  0.01491842  0.75128490  0.86960115    -0.02310
Br1045     Br  0.05560847  0.77635949  0.85547764    -0.00860
Br1046     Br  0.05803864  0.69087220  0.85980999    -0.00930
Br1047     Br  0.41154074  0.77537318  0.89598717    -0.00890
Br1048     Br  0.41372162  0.68935070  0.89972837    -0.00880
C1049       C  0.25383945  0.95392670  0.63044460    -0.02000
C1050       C  0.27058297  0.98537363  0.62441174     0.07680
C1051       C  0.25103289  0.51506557  0.61629917    -0.02120
C1052       C  0.21455097  0.51387175  0.61703393    -0.02120
C1053       C  0.19781848  0.98286587  0.62567226     0.07810
C1054       C  0.21754665  0.95260611  0.63063161    -0.02310
Br1055     Br  0.19491472  0.90946792  0.63908012    -0.00860
Br1056     Br  0.28080556  0.91326669  0.64116649    -0.00930
Br1057     Br  0.18771829  0.55511841  0.60875691    -0.00890
Br1058     Br  0.27439638  0.55781501  0.60688225    -0.00880
C1059       C  0.11935828  0.94178173  0.73220058    -0.02000
C1060       C  0.10627449  0.97062230  0.71427355     0.07680
C1061       C  0.08842709  0.49660873  0.73264143    -0.02120
C1062       C  0.08805109  0.49601588  0.76904688    -0.02120
C1063       C  0.10570945  0.96957080  0.78692869     0.07810
C1064       C  0.11927554  0.94133845  0.76840486    -0.02310
Br1065     Br  0.13897572  0.90249148  0.79263485    -0.00860
Br1066     Br  0.13800741  0.90297992  0.70730602    -0.00930
Br1067     Br  0.06562501  0.53267610  0.79423246    -0.00890
Br1068     Br  0.06666619  0.53420133  0.70826449    -0.00880
C1069       C  0.34488126  0.02916577  0.73159684    -0.02000
C1070       C  0.36083663  0.00174422  0.71354278     0.07680
C1071       C  0.38027574  0.97688121  0.73202098    -0.02120
C1072       C  0.38043093  0.97732132  0.76846384    -0.02120
C1073       C  0.36113043  0.00262284  0.78645929     0.07810
C1074       C  0.34503277  0.02960631  0.76786276    -0.02310
Br1075     Br  0.32143961  0.06648588  0.79208325    -0.00860
Br1076     Br  0.32113761  0.06547278  0.70665081    -0.00930
Br1077     Br  0.40422943  0.94109294  0.79328460    -0.00890
Br1078     Br  0.40384583  0.94006615  0.70788132    -0.00880
C1079       C  0.25447314  0.95501641  0.86995112    -0.02000
C1080       C  0.27054658  0.98710104  0.87454636     0.07680
C1081       C  0.25031328  0.51684936  0.88040708    -0.02120
C1082       C  0.21389641  0.51471289  0.87981441    -0.02120
C1083       C  0.19781704  0.98257930  0.87481419     0.07810
C1084       C  0.21823222  0.95259966  0.87117869    -0.02310
Br1085     Br  0.19642416  0.90848268  0.86569545    -0.00860
Br1086     Br  0.28212416  0.91529923  0.85783957    -0.00930
Br1087     Br  0.18609491  0.55610462  0.88184887    -0.00890
Br1088     Br  0.27257951  0.56091409  0.88568370    -0.00880
C1089       C  0.08286197  0.71297548  0.99017553    -0.02000
C1090       C  0.10074259  0.69565234  0.01695476     0.07680
C1091       C  0.11608386  0.71513123  0.54384779    -0.02120
C1092       C  0.11830062  0.75112010  0.54111760    -0.02120
C1093       C  0.10441025  0.76799824  0.01199024     0.07810
C1094       C  0.08452942  0.74919036  0.98786794    -0.02310
Br1095     Br  0.06199373  0.77268958  0.95008041    -0.00860
Br1096     Br  0.05889707  0.68734854  0.95477579    -0.00930
Br1097     Br  0.14191245  0.77723842  0.57650370    -0.00890
Br1098     Br  0.13689849  0.69217836  0.58312502    -0.00880
C1099       C  0.25369930  0.57946173  0.00237550    -0.02000
C1100       C  0.27172920  0.60525641  0.02144091     0.07680
C1101       C  0.25134076  0.62985620  0.53866012    -0.02120
C1102       C  0.21965370  0.63828969  0.52397213    -0.02120
C1103       C  0.19877201  0.61162892  0.01036597     0.07810
C1104       C  0.21681582  0.58125954  0.99910088    -0.02310
Br1105     Br  0.19421207  0.54486006  0.97363064    -0.00860
Br1106     Br  0.27846494  0.54248599  0.97960651    -0.00930
Br1107     Br  0.22427602  0.67998339  0.49718182    -0.00890
Br1108     Br  0.26957357  0.65987614  0.57393917    -0.00880
C1109       C  0.21724399  0.86191205  0.51567567    -0.02000
C1110       C  0.19673482  0.85322813  0.48687344     0.07680
C1111       C  0.21264497  0.84754087  0.95468254    -0.02120
C1112       C  0.24890802  0.85067799  0.95126724    -0.02120
C1113       C  0.26975450  0.85894785  0.48026692     0.07810
C1114       C  0.25350978  0.86473964  0.51254854    -0.02310
Br1115     Br  0.28091591  0.87184201  0.55379510    -0.00860
Br1116     Br  0.19567439  0.86575467  0.56030549    -0.00930
Br1117     Br  0.27021130  0.84088693  0.90734456    -0.00890
Br1118     Br  0.18484534  0.83217802  0.91617595    -0.00880
C1119       C  0.32627392  0.74823010  0.49000044    -0.02000
C1120       C  0.35632001  0.76875126  0.99175680     0.07680
C1121       C  0.38869545  0.75047389  0.99310427    -0.02120
C1122       C  0.38861577  0.71371653  0.99599807    -0.02120
C1123       C  0.35775337  0.69514996  0.98794324     0.07810
C1124       C  0.32897711  0.71487377  0.47813042    -0.02310
Br1125     Br  0.29540847  0.69873668  0.44510494    -0.00860
Br1126     Br  0.28354607  0.76011455  0.51331893    -0.00930
Br1127     Br  0.43033510  0.69091065  0.01167621    -0.00890
Br1128     Br  0.43307133  0.77288464  0.98969988    -0.00880
C1129       C  0.86657178  0.36824397  0.99715085     0.02970
C1130       C  0.87458579  0.33278172  0.50052360    -0.13170
C1131       C  0.85119817  0.30745453  0.48861739     0.00480
C1132       C  0.81975303  0.31939317  0.47417418    -0.11700
C1133       C  0.80804104  0.35298148  0.97932013     0.02970
C1134       C  0.83219719  0.37800998  0.98902091    -0.11120
H1135       H  0.89864246  0.32580772  0.51275278     0.08560
H1136       H  0.80212215  0.30161943  0.46192899     0.06090
H1137       H  0.82407472  0.40472588  0.99040531     0.05940
C1138       C  0.86887024  0.09753420  0.50226613     0.02970
C1139       C  0.83565964  0.08909945  0.51462733    -0.13170
C1140       C  0.80920768  0.11374014  0.51502745     0.00480
C1141       C  0.81807274  0.14787568  0.50707922    -0.11700
C1142       C  0.85128209  0.15759850  0.49562037     0.02970
C1143       C  0.87608731  0.13145159  0.49161571    -0.11120
H1144       H  0.83042414  0.06334104  0.52377948     0.08560
H1145       H  0.79829540  0.16736626  0.50930335     0.06090
H1146       H  0.90072040  0.13701249  0.47978189     0.05940
C1147       C  0.59889350  0.09758273  0.50873662     0.02970
C1148       C  0.63491059  0.09046902  0.50958139    -0.13170
C1149       C  0.65958442  0.11733521  0.50894204     0.00480
C1150       C  0.64616898  0.15112667  0.51099236    -0.11700
C1151       C  0.61095864  0.15876489  0.51300998     0.02970
C1152       C  0.58726110  0.13196566  0.51138632    -0.11120
H1153       H  0.64297759  0.06409249  0.51245446     0.08560
H1154       H  0.66250235  0.17292762  0.51320935     0.06090
H1155       H  0.55987290  0.13802767  0.51277529     0.05940
C1156       C  0.59933040  0.36517287  0.49934126     0.02970
C1157       C  0.63448609  0.37248209  0.99256560    -0.13170
C1158       C  0.65930198  0.34584836  0.99167244     0.00480
C1159       C  0.64891243  0.31185055  0.49750222    -0.11700
C1160       C  0.61423866  0.30419317  0.50490182     0.02970
C1161       C  0.58964913  0.33084843  0.50589330    -0.11120
H1162       H  0.64269210  0.39872964  0.98805002     0.08560
H1163       H  0.66806326  0.29131169  0.49698411     0.06090
H1164       H  0.56300350  0.32466260  0.51194604     0.05940
C1165       C  0.86841241  0.49124242  0.38436260     0.02970
C1166       C  0.83301437  0.48857197  0.39280624    -0.13170
C1167       C  0.80774371  0.49034630  0.36683885     0.00480
C1168       C  0.81762885  0.49395681  0.33242839    -0.11700
C1169       C  0.85246397  0.49794350  0.32350707     0.02970
C1170       C  0.87782123  0.49695110  0.34960002    -0.11120
H1171       H  0.82498295  0.48469815  0.41930849     0.08560
H1172       H  0.79788433  0.49404154  0.31239683     0.06090
H1173       H  0.90476401  0.50030347  0.34266373     0.05940
C1174       C  0.59987438  0.47831056  0.38482983     0.02970
C1175       C  0.59007992  0.47383483  0.34995832    -0.13170
C1176       C  0.61506543  0.47381137  0.32381504     0.00480
C1177       C  0.65001899  0.47779605  0.33255273    -0.11700
C1178       C  0.66036140  0.48087943  0.36704143     0.02970
C1179       C  0.63534361  0.48143760  0.39319840    -0.11120
H1180       H  0.56310089  0.47045999  0.34294355     0.08560
H1181       H  0.66945303  0.47781845  0.31236285     0.06090
H1182       H  0.64363043  0.48425249  0.41982875     0.05940
C1183       C  0.59976730  0.48018561  0.11654500     0.02970
C1184       C  0.59028103  0.47578962  0.15139461    -0.13170
C1185       C  0.61551174  0.47550842  0.17747071     0.00480
C1186       C  0.65044485  0.47940631  0.16862616    -0.11700
C1187       C  0.66044692  0.48255944  0.13403996     0.02970
C1188       C  0.63511599  0.48322534  0.10805988    -0.11120
H1189       H  0.56335952  0.47238399  0.15841351     0.08560
H1190       H  0.67010179  0.47900525  0.18872742     0.06090
H1191       H  0.64311823  0.48573222  0.08137815     0.05940
C1192       C  0.86843802  0.48933638  0.11585755     0.02970
C1193       C  0.87770542  0.49526607  0.15069401    -0.13170
C1194       C  0.85224749  0.49639747  0.17648791     0.00480
C1195       C  0.81745303  0.49220567  0.16718562    -0.11700
C1196       C  0.80773689  0.48832952  0.13264216     0.02970
C1197       C  0.83311190  0.48651080  0.10699844    -0.11120
H1198       H  0.90460441  0.49882595  0.15790073     0.08560
H1199       H  0.79761903  0.49251633  0.18698663     0.06090
H1200       H  0.82519845  0.48259453  0.08039370     0.05940
C1201       C  0.98391925  0.09851065  0.38467350     0.02970
C1202       C  0.98398287  0.13363757  0.39445134    -0.13170
C1203       C  0.98376882  0.15959526  0.36929525     0.00480
C1204       C  0.98322441  0.15061049  0.33431481    -0.11700
C1205       C  0.98379330  0.11612423  0.32397176     0.02970
C1206       C  0.98393706  0.09003700  0.34909323    -0.11120
H1207       H  0.98448849  0.14097449  0.42147255     0.08560
H1208       H  0.98314871  0.17071963  0.31488746     0.06090
H1209       H  0.98433262  0.06336875  0.34080767     0.05940
C1210       C  0.98125241  0.36687815  0.38434372     0.02970
C1211       C  0.98252652  0.33172391  0.39357804    -0.13170
C1212       C  0.98125928  0.30608042  0.36807954     0.00480
C1213       C  0.97856238  0.31536069  0.33332531    -0.11700
C1214       C  0.97741105  0.34997452  0.32361109     0.02970
C1215       C  0.97875921  0.37575028  0.34903409    -0.11120
H1216       H  0.98476923  0.32411766  0.42041863     0.08560
H1217       H  0.97786422  0.29545634  0.31362019     0.06090
H1218       H  0.97791893  0.40250277  0.34115565     0.05940
C1219       C  0.98334302  0.09881501  0.11546208     0.02970
C1220       C  0.98351022  0.09062575  0.15102814    -0.13170
C1221       C  0.98293864  0.11689716  0.17602511     0.00480
C1222       C  0.98189405  0.15132025  0.16557186    -0.11700
C1223       C  0.98210338  0.15994459  0.13054131     0.02970
C1224       C  0.98273104  0.13381632  0.10552406    -0.11120
H1225       H  0.98437239  0.06402928  0.15941192     0.08560
H1226       H  0.98170172  0.17160695  0.18489269     0.06090
H1227       H  0.98305172  0.14094765  0.07847563     0.05940
C1228       C  0.98119102  0.36691889  0.11576469     0.02970
C1229       C  0.97902317  0.37543227  0.15117854    -0.13170
C1230       C  0.97814435  0.34939231  0.17623307     0.00480
C1231       C  0.97954808  0.31485087  0.16599722    -0.11700
C1232       C  0.98166926  0.30598989  0.13103808     0.02970
C1233       C  0.98249132  0.33189819  0.10598916    -0.11120
H1234       H  0.97800393  0.40210866  0.15940831     0.08560
H1235       H  0.97906065  0.29472263  0.18538229     0.06090
H1236       H  0.98423078  0.32456745  0.07901847     0.05940
O1237       O  0.92601326  0.38450585  0.50079620    -0.80290
O1238       O  0.92779584  0.08062990  0.49992087    -0.81840
O1239       O  0.88545880  0.48505569  0.05702340    -0.78860
O1240       O  0.88540131  0.48640019  0.44336067    -0.77240
O1241       O  0.92732110  0.48661178  0.40175454    -0.79030
O1242       O  0.92738222  0.48544488  0.09890913    -0.79970
O1243       O  0.88591651  0.03916695  0.50092640    -0.81290
O1244       O  0.88446213  0.42669042  0.50027837    -0.81580
Eu1245     Eu  0.91380596  0.48266008  0.50027134     2.39200
O1246       O  0.94894330  0.01728126  0.46525330    -0.89090
O1247       O  0.94847653  0.44745019  0.03573454    -0.92700
C1248       C  0.89406853  0.39478161  0.50031167     1.01990
C1249       C  0.89593687  0.07077959  0.50072109     1.01810
C1250       C  0.89545107  0.48634712  0.08889436     1.01760
C1251       C  0.89539938  0.48789659  0.41156556     0.99620
H1252       H  0.93487463  0.03219716  0.04949098     0.29360
O1253       O  0.94912321  0.01747585  0.03523012    -1.01480
H1254       H  0.93371815  0.43354172  0.45022268     0.29400
O1255       O  0.94848473  0.44758461  0.46476917    -1.04020
O1256       O  0.54092954  0.07904565  0.50407356    -0.81250
O1257       O  0.54049400  0.38376724  0.49999792    -0.80780
O1258       O  0.98450424  0.03949282  0.09894114    -0.79220
O1259       O  0.98435476  0.03925554  0.40142866    -0.82560
O1260       O  0.98263368  0.42581922  0.40153464    -0.80420
O1261       O  0.98229727  0.42596561  0.09912019    -0.79070
O1262       O  0.58295080  0.48080044  0.05745455    -0.80590
O1263       O  0.58324120  0.48051806  0.44395855    -0.82510
O1264       O  0.54089304  0.48173098  0.09891263    -0.79250
O1265       O  0.54106220  0.48011862  0.40232072    -0.81930
O1266       O  0.98372440  0.08060788  0.05675948    -0.77660
O1267       O  0.98258092  0.38450275  0.05709481    -0.77690
O1268       O  0.98292406  0.38424487  0.44332047    -0.77340
O1269       O  0.98423338  0.08059100  0.44354537    -0.80830
O1270       O  0.58357921  0.03802665  0.50422659    -0.80260
O1271       O  0.58305207  0.42455925  0.49975219    -0.78590
Eu1272     Eu  0.98434139  0.05178305  0.50018371     2.39770
Eu1273     Eu  0.98338867  0.41244540  0.50030011     2.39570
Eu1274     Eu  0.98404523  0.48248591  0.07054245     2.38400
Eu1275     Eu  0.98412314  0.48250131  0.43014707     2.39880
Eu1276     Eu  0.55464023  0.48155566  0.50059433     2.39790
O1277       O  0.51882911  0.44712952  0.46552805    -0.93000
O1278       O  0.51939071  0.01678665  0.03546260    -0.91890
C1279       C  0.57297687  0.06964267  0.50557701     1.02170
C1280       C  0.57265502  0.39296955  0.49971446     1.00890
C1281       C  0.98397375  0.07119376  0.08875091     1.00280
C1282       C  0.98417733  0.07103067  0.41153372     1.02060
C1283       C  0.98243977  0.39404209  0.41142610     1.01210
C1284       C  0.98207179  0.39422819  0.08901417     1.00060
C1285       C  0.57285729  0.48100435  0.08922007     1.00110
C1286       C  0.57307202  0.47969005  0.41213817     1.02730
H1287       H  0.53329545  0.43236211  0.04993920     0.30100
O1288       O  0.51905592  0.44695626  0.03553087    -1.05160
H1289       H  0.53460603  0.03150517  0.45088553     0.32150
O1290       O  0.52004156  0.01718967  0.46503022    -1.07720
C1291       C  0.95242374  0.21497872  0.11402454    -0.02000
C1292       C  0.98331868  0.19677835  0.12109227     0.07680
C1293       C  0.51468102  0.21479814  0.12504262    -0.02120
C1294       C  0.51463971  0.25098183  0.12538944    -0.02120
C1295       C  0.98322943  0.26917815  0.12150329     0.07810
C1296       C  0.95244774  0.25125374  0.11394794    -0.02310
Br1297     Br  0.90998645  0.27649611  0.10602392    -0.00860
Br1298     Br  0.90967367  0.19024181  0.10758082    -0.00930
Br1299     Br  0.55715819  0.27575780  0.13333380    -0.00890
Br1300     Br  0.55724816  0.18971155  0.13239023    -0.00880
C1301       C  0.50668820  0.36538544  0.26838031    -0.02000
C1302       C  0.97588301  0.35817505  0.28634692     0.07680
C1303       C  0.94485947  0.35271311  0.26786707    -0.02120
C1304       C  0.94509024  0.35231491  0.23152055    -0.02120
C1305       C  0.97633961  0.35742195  0.21356129     0.07810
C1306       C  0.50691154  0.36499568  0.23200532    -0.02310
Br1307     Br  0.54966243  0.37151301  0.20737390    -0.00860
Br1308     Br  0.54916002  0.37245379  0.29370989    -0.00930
Br1309     Br  0.90309671  0.34256546  0.20620111    -0.00890
Br1310     Br  0.90255121  0.34353321  0.29255349    -0.00880
C1311       C  0.95417216  0.10126524  0.23173485    -0.02000
C1312       C  0.98459136  0.10936162  0.21349412     0.07680
C1313       C  0.51560916  0.11550536  0.23175716    -0.02120
C1314       C  0.51590087  0.11491955  0.26807624    -0.02120
C1315       C  0.98510857  0.10851099  0.28643996     0.07810
C1316       C  0.95441073  0.10091734  0.26817571    -0.02310
Br1317     Br  0.91211176  0.09335812  0.29322475    -0.00860
Br1318     Br  0.91159802  0.09396666  0.20671323    -0.00930
Br1319     Br  0.55811743  0.12518239  0.29274203    -0.00890
Br1320     Br  0.55723223  0.12721585  0.20698216    -0.00880
C1321       C  0.51571923  0.21514682  0.37070772    -0.02000
C1322       C  0.98535578  0.19663081  0.37835475     0.07680
C1323       C  0.95500281  0.21454226  0.38806203    -0.02120
C1324       C  0.95422218  0.25083525  0.38707823    -0.02120
C1325       C  0.98389671  0.26913465  0.37677192     0.07810
C1326       C  0.51491839  0.25128486  0.36960113    -0.02310
Br1327     Br  0.55560842  0.27635948  0.35547760    -0.00860
Br1328     Br  0.55803865  0.19087219  0.35980997    -0.00930
Br1329     Br  0.91154067  0.27537318  0.39598716    -0.00890
Br1330     Br  0.91372162  0.18935071  0.39972842    -0.00880
C1331       C  0.75383939  0.45392679  0.13044451    -0.02000
C1332       C  0.77058293  0.48537372  0.12441169     0.07680
C1333       C  0.75103298  0.01506553  0.11629926    -0.02120
C1334       C  0.71455106  0.01387172  0.11703403    -0.02120
C1335       C  0.69781844  0.48286598  0.12567212     0.07810
C1336       C  0.71754659  0.45260621  0.13063148    -0.02310
Br1337     Br  0.69491463  0.40946802  0.13907995    -0.00860
Br1338     Br  0.78080547  0.41326676  0.14116641    -0.00930
Br1339     Br  0.68771838  0.05511840  0.10875709    -0.00890
Br1340     Br  0.77439647  0.05781497  0.10688241    -0.00880
C1341       C  0.61935826  0.44178190  0.23220048    -0.02000
C1342       C  0.60627463  0.47062262  0.21427359     0.07680
C1343       C  0.58842714  0.99660866  0.23264149    -0.02120
C1344       C  0.58805114  0.99601581  0.26904694    -0.02120
C1345       C  0.60570977  0.46957087  0.28692875     0.07810
C1346       C  0.61927554  0.44133847  0.26840477    -0.02310
Br1347     Br  0.63897517  0.40249110  0.29263451    -0.00860
Br1348     Br  0.63800714  0.40298009  0.20730573    -0.00930
Br1349     Br  0.56562505  0.03267602  0.29423252    -0.00890
Br1350     Br  0.56666621  0.03420125  0.20826456    -0.00880
C1351       C  0.84488103  0.52916581  0.23159694    -0.02000
C1352       C  0.86083646  0.50174429  0.21354286     0.07680
C1353       C  0.88027555  0.47688128  0.23202107    -0.02120
C1354       C  0.88043069  0.47732135  0.26846392    -0.02120
C1355       C  0.86113016  0.50262283  0.28645938     0.07810
C1356       C  0.84503247  0.52960629  0.26786286    -0.02310
Br1357     Br  0.82143920  0.56648577  0.29208341    -0.00860
Br1358     Br  0.82113741  0.56547285  0.20665092    -0.00930
Br1359     Br  0.90422919  0.44109297  0.29328469    -0.00890
Br1360     Br  0.90384569  0.44006624  0.20788141    -0.00880
C1361       C  0.75447329  0.45501553  0.36994995    -0.02000
C1362       C  0.77054661  0.48710001  0.37454668     0.07680
C1363       C  0.75031334  0.01684936  0.38040709    -0.02120
C1364       C  0.71389647  0.01471287  0.37981442    -0.02120
C1365       C  0.69781710  0.48257791  0.37481492     0.07810
C1366       C  0.71823241  0.45259855  0.37117771    -0.02310
Br1367     Br  0.69642459  0.40848166  0.36569285    -0.00860
Br1368     Br  0.78212439  0.41529898  0.35783639    -0.00930
Br1369     Br  0.68609496  0.05610459  0.38184883    -0.00890
Br1370     Br  0.77257956  0.06091411  0.38568368    -0.00880
C1371       C  0.58286197  0.21297548  0.49017548    -0.02000
C1372       C  0.60074260  0.19565236  0.51695471     0.07680
C1373       C  0.61608381  0.21513113  0.04384709    -0.02120
C1374       C  0.61830059  0.25112000  0.04111701    -0.02120
C1375       C  0.60441021  0.26799827  0.51199019     0.07810
C1376       C  0.58452940  0.24919037  0.48786790    -0.02310
Br1377     Br  0.56199370  0.27268957  0.45008036    -0.00860
Br1378     Br  0.55889707  0.18734853  0.45477576    -0.00930
Br1379     Br  0.64191256  0.27723818  0.07650312    -0.00890
Br1380     Br  0.63689879  0.19217805  0.08312400    -0.00880
C1381       C  0.75369939  0.07946186  0.50237548    -0.02000
C1382       C  0.77172927  0.10525654  0.52144089     0.07680
C1383       C  0.75134075  0.12985535  0.03866105    -0.02120
C1384       C  0.71965373  0.13828959  0.02397326    -0.02120
C1385       C  0.69877207  0.11162900  0.51036596     0.07810
C1386       C  0.71681591  0.08125964  0.49910086    -0.02310
Br1387     Br  0.69421217  0.04486015  0.47363062    -0.00860
Br1388     Br  0.77846505  0.04248614  0.47960649    -0.00930
Br1389     Br  0.72427681  0.17998486  0.99718555    -0.00890
Br1390     Br  0.76957396  0.15987412  0.07394092    -0.00880
C1391       C  0.71724392  0.36191202  0.01567550    -0.02000
C1392       C  0.69673480  0.35322812  0.98687323     0.07680
C1393       C  0.71264484  0.34754143  0.45468260    -0.02120
C1394       C  0.74890788  0.35067865  0.45126732    -0.02120
C1395       C  0.76975450  0.35894777  0.98026685     0.07810
C1396       C  0.75350972  0.36473958  0.01254844    -0.02310
Br1397     Br  0.78091579  0.37184194  0.05379505    -0.00860
Br1398     Br  0.69567424  0.36575467  0.06030529    -0.00930
Br1399     Br  0.77021120  0.34088832  0.40734451    -0.00890
Br1400     Br  0.68484522  0.33217892  0.41617588    -0.00880
C1401       C  0.82627380  0.24823006  0.99000092    -0.02000
C1402       C  0.85631988  0.26875148  0.49175658     0.07680
C1403       C  0.88869533  0.25047414  0.49310416    -0.02120
C1404       C  0.88861569  0.21371678  0.49599801    -0.02120
C1405       C  0.85775334  0.19515016  0.48794315     0.07810
C1406       C  0.82897693  0.21487361  0.97813119    -0.02310
Br1407     Br  0.79540810  0.19873622  0.94510601    -0.00860
Br1408     Br  0.78354594  0.26011479  0.01331927    -0.00930
Br1409     Br  0.93033501  0.19091098  0.51167630    -0.00890
Br1410     Br  0.93307121  0.27288491  0.48969981    -0.00880
C1411       C  0.86657278  0.36824324  0.49715096     0.02970
C1412       C  0.87458613  0.33278198  0.00052358    -0.13170
C1413       C  0.85119838  0.30745448  0.98861750     0.00480
C1414       C  0.81975315  0.31939305  0.97417424    -0.11700
C1415       C  0.80804098  0.35298166  0.47932017     0.02970
C1416       C  0.83219744  0.37801026  0.48902102    -0.11120
H1417       H  0.89864297  0.32580819  0.01275271     0.08560
H1418       H  0.80212226  0.30161930  0.96192908     0.06090
H1419       H  0.82407491  0.40472617  0.49040543     0.05940
C1420       C  0.86887028  0.09753414  0.00226615     0.02970
C1421       C  0.83565966  0.08909938  0.01462731    -0.13170
C1422       C  0.80920769  0.11374008  0.01502740     0.00480
C1423       C  0.81807276  0.14787561  0.00707916    -0.11700
C1424       C  0.85128213  0.15759844  0.99562037     0.02970
C1425       C  0.87608736  0.13145154  0.99161573    -0.11120
H1426       H  0.83042416  0.06334098  0.02377945     0.08560
H1427       H  0.79829542  0.16736619  0.00930327     0.06090
H1428       H  0.90072046  0.13701243  0.97978194     0.05940
C1429       C  0.59889342  0.09758271  0.00873659     0.02970
C1430       C  0.63491051  0.09046896  0.00958136    -0.13170
C1431       C  0.65958438  0.11733512  0.00894208     0.00480
C1432       C  0.64616897  0.15112658  0.01099249    -0.11700
C1433       C  0.61095863  0.15876485  0.01301005     0.02970
C1434       C  0.58726106  0.13196564  0.01138632    -0.11120
H1435       H  0.64297749  0.06409241  0.01245438     0.08560
H1436       H  0.66250237  0.17292751  0.01320961     0.06090
H1437       H  0.55987287  0.13802768  0.01277526     0.05940
C1438       C  0.59933049  0.36517283  0.99934127     0.02970
C1439       C  0.63448600  0.37248214  0.49256561    -0.13170
C1440       C  0.65930191  0.34584842  0.49167246     0.00480
C1441       C  0.64891250  0.31185049  0.99750222    -0.11700
C1442       C  0.61423873  0.30419313  0.00490184     0.02970
C1443       C  0.58964921  0.33084839  0.00589331    -0.11120
H1444       H  0.64269201  0.39872969  0.48805005     0.08560
H1445       H  0.66806332  0.29131162  0.99698411     0.06090
H1446       H  0.56300358  0.32466257  0.01194606     0.05940
C1447       C  0.86841244  0.49124247  0.88436258     0.02970
C1448       C  0.83301437  0.48857211  0.89280619    -0.13170
C1449       C  0.80774372  0.49034649  0.86683877     0.00480
C1450       C  0.81762891  0.49395690  0.83242832    -0.11700
C1451       C  0.85246405  0.49794351  0.82350702     0.02970
C1452       C  0.87782129  0.49695107  0.84960000    -0.11120
H1453       H  0.82498291  0.48469836  0.91930845     0.08560
H1454       H  0.79788440  0.49404165  0.81239675     0.06090
H1455       H  0.90476407  0.50030338  0.84266372     0.05940
C1456       C  0.59987439  0.47831075  0.88482975     0.02970
C1457       C  0.59007988  0.47383491  0.84995827    -0.13170
C1458       C  0.61506534  0.47381153  0.82381493     0.00480
C1459       C  0.65001889  0.47779640  0.83255253    -0.11700
C1460       C  0.66036135  0.48087991  0.86704121     0.02970
C1461       C  0.63534362  0.48143799  0.89319823    -0.11120
H1462       H  0.56310086  0.47045990  0.84294356     0.08560
H1463       H  0.66945289  0.47781886  0.81236262     0.06090
H1464       H  0.64363049  0.48425297  0.91982857     0.05940
C1465       C  0.59976726  0.48018560  0.61654494     0.02970
C1466       C  0.59028099  0.47578955  0.65139454    -0.13170
C1467       C  0.61551168  0.47550835  0.67747065     0.00480
C1468       C  0.65044480  0.47940630  0.66862610    -0.11700
C1469       C  0.66044687  0.48255948  0.63403991     0.02970
C1470       C  0.63511595  0.48322538  0.60805983    -0.11120
H1471       H  0.56335948  0.47238387  0.65841343     0.08560
H1472       H  0.67010173  0.47900524  0.68872737     0.06090
H1473       H  0.64311818  0.48573230  0.58137810     0.05940
C1474       C  0.86843796  0.48933639  0.61585751     0.02970
C1475       C  0.87770538  0.49526608  0.65069398    -0.13170
C1476       C  0.85224746  0.49639747  0.67648788     0.00480
C1477       C  0.81745299  0.49220570  0.66718560    -0.11700
C1478       C  0.80773684  0.48832960  0.63264213     0.02970
C1479       C  0.83311185  0.48651087  0.60699841    -0.11120
H1480       H  0.90460437  0.49882594  0.65790070     0.08560
H1481       H  0.79761900  0.49251636  0.68698661     0.06090
H1482       H  0.82519839  0.48259463  0.58039367     0.05940
C1483       C  0.98391933  0.09851067  0.88467353     0.02970
C1484       C  0.98398296  0.13363760  0.89445133    -0.13170
C1485       C  0.98376890  0.15959527  0.86929521     0.00480
C1486       C  0.98322447  0.15061046  0.83431479    -0.11700
C1487       C  0.98379334  0.11612419  0.82397177     0.02970
C1488       C  0.98393711  0.09003699  0.84909326    -0.11120
H1489       H  0.98448860  0.14097454  0.92147254     0.08560
H1490       H  0.98314875  0.17071958  0.81488742     0.06090
H1491       H  0.98433267  0.06336873  0.84080773     0.05940
C1492       C  0.98125277  0.36687909  0.88434316     0.02970
C1493       C  0.98252665  0.33172442  0.89357849    -0.13170
C1494       C  0.98125933  0.30608054  0.86807971     0.00480
C1495       C  0.97856239  0.31536074  0.83332534    -0.11700
C1496       C  0.97741106  0.34997449  0.82361108     0.02970
C1497       C  0.97875927  0.37575010  0.84903388    -0.11120
H1498       H  0.98476953  0.32411881  0.92041928     0.08560
H1499       H  0.97786420  0.29545642  0.81362017     0.06090
H1500       H  0.97791894  0.40250257  0.84115541     0.05940
C1501       C  0.98334293  0.09881501  0.61546208     0.02970
C1502       C  0.98351016  0.09062572  0.65102814    -0.13170
C1503       C  0.98293857  0.11689711  0.67602513     0.00480
C1504       C  0.98189393  0.15132021  0.66557191    -0.11700
C1505       C  0.98210322  0.15994457  0.63054136     0.02970
C1506       C  0.98273090  0.13381632  0.60552408    -0.11120
H1507       H  0.98437236  0.06402924  0.65941191     0.08560
H1508       H  0.98170159  0.17160689  0.68489275     0.06090
H1509       H  0.98305158  0.14094767  0.57847567     0.05940
C1510       C  0.98119063  0.36691799  0.61576416     0.02970
C1511       C  0.97902308  0.37543251  0.65117834    -0.13170
C1512       C  0.97814430  0.34939243  0.67623308     0.00480
C1513       C  0.97954800  0.31485090  0.66599731    -0.11700
C1514       C  0.98166915  0.30598982  0.63103833     0.02970
C1515       C  0.98249114  0.33189770  0.60598965    -0.11120
H1516       H  0.97800391  0.40210893  0.65940806     0.08560
H1517       H  0.97906059  0.29472266  0.68538235     0.06090
H1518       H  0.98423042  0.32456622  0.57901919     0.05940
O1519       O  0.92600115  0.38451343  0.00079614    -0.80290
O1520       O  0.92779590  0.08062986  0.99992091    -0.81840
O1521       O  0.88545875  0.48505571  0.55702344    -0.78860
O1522       O  0.88540130  0.48640018  0.94336073    -0.77240
O1523       O  0.92732148  0.48661182  0.90175486    -0.79030
O1524       O  0.92738178  0.48544487  0.59890941    -0.79970
O1525       O  0.88591657  0.03916690  0.00092642    -0.81290
O1526       O  0.88445811  0.42669325  0.00027824    -0.81580
Eu1527     Eu  0.91380706  0.48265803  0.00027136     2.39200
O1528       O  0.94894337  0.01728126  0.96525335    -0.89090
O1529       O  0.94848452  0.44746580  0.53572734    -0.92700
C1530       C  0.89406236  0.39478602  0.00031182     1.01990
C1531       C  0.89593693  0.07077954  0.00072112     1.01810
C1532       C  0.89545094  0.48634710  0.58889436     1.01760
C1533       C  0.89539946  0.48789664  0.91156558     0.99620
H1534       H  0.93487461  0.03219713  0.54949093     0.29360
O1535       O  0.94912313  0.01747587  0.53523011    -1.01480
H1536       H  0.93370941  0.43353657  0.95021414     0.29400
O1537       O  0.94847776  0.44756946  0.96476265    -1.04020
O1538       O  0.54092943  0.07904565  0.00407355    -0.81250
O1539       O  0.54049410  0.38376720  0.99999793    -0.80780
O1540       O  0.98450418  0.03949283  0.59894113    -0.79220
O1541       O  0.98435481  0.03925557  0.90142872    -0.82560
O1542       O  0.98263392  0.42582236  0.90153010    -0.80420
O1543       O  0.98229683  0.42596260  0.59911572    -0.79070
O1544       O  0.58295075  0.48080045  0.55745450    -0.80590
O1545       O  0.58324128  0.48051815  0.94395852    -0.82510
O1546       O  0.54089300  0.48173100  0.59891258    -0.79250
O1547       O  0.54106224  0.48011867  0.90232073    -0.81930
O1548       O  0.98372432  0.08060788  0.55675947    -0.77660
O1549       O  0.98258730  0.38449020  0.55708595    -0.77690
O1550       O  0.98291804  0.38425758  0.94331141    -0.77340
O1551       O  0.98423350  0.08059105  0.94354542    -0.80830
O1552       O  0.58357911  0.03802664  0.00422656    -0.80260
O1553       O  0.58305216  0.42455921  0.99975218    -0.78590
Eu1554     Eu  0.98434149  0.05178304  0.00018374     2.39770
Eu1555     Eu  0.98336943  0.41239243  0.00029932     2.39570
Eu1556     Eu  0.98404291  0.48248973  0.57054513     2.38400
Eu1557     Eu  0.98412508  0.48249812  0.93014990     2.39880
Eu1558     Eu  0.55464034  0.48155565  0.00059434     2.39790
O1559       O  0.51882920  0.44712951  0.96552808    -0.93000
O1560       O  0.51939080  0.01678666  0.53546262    -0.91890
C1561       C  0.57297677  0.06964267  0.00557698     1.02170
C1562       C  0.57265511  0.39296951  0.99971446     1.00890
C1563       C  0.98397367  0.07119376  0.58875090     1.00280
C1564       C  0.98417741  0.07103071  0.91153376     1.02060
C1565       C  0.98243931  0.39404778  0.91142103     1.01210
C1566       C  0.98207230  0.39422261  0.58900918     1.00060
C1567       C  0.57285725  0.48100436  0.58922002     1.00110
C1568       C  0.57307207  0.47969015  0.91213815     1.02730
H1569       H  0.53329530  0.43236220  0.54993914     0.30100
O1570       O  0.51905583  0.44695629  0.53553088    -1.05160
H1571       H  0.53460593  0.03150518  0.95088553     0.32150
O1572       O  0.52004146  0.01718966  0.96503022    -1.07720
C1573       C  0.95242365  0.21497873  0.61402450    -0.02000
C1574       C  0.98331855  0.19677834  0.62109235     0.07680
C1575       C  0.51468111  0.21479820  0.62504267    -0.02120
C1576       C  0.51463978  0.25098188  0.62538949    -0.02120
C1577       C  0.98322933  0.26917813  0.62150337     0.07810
C1578       C  0.95244766  0.25125375  0.61394790    -0.02310
Br1579     Br  0.90998640  0.27649613  0.60602374    -0.00860
Br1580     Br  0.90967359  0.19024183  0.60758068    -0.00930
Br1581     Br  0.55715824  0.27575786  0.63333392    -0.00890
Br1582     Br  0.55724824  0.18971161  0.63239035    -0.00880
C1583       C  0.50668829  0.36538548  0.76838028    -0.02000
C1584       C  0.97588300  0.35817513  0.78634692     0.07680
C1585       C  0.94485946  0.35271318  0.76786708    -0.02120
C1586       C  0.94509021  0.35231496  0.73152056    -0.02120
C1587       C  0.97633958  0.35742199  0.71356129     0.07810
C1588       C  0.50691161  0.36499574  0.73200530    -0.02310
Br1589     Br  0.54966248  0.37151312  0.70737385    -0.00860
Br1590     Br  0.54916011  0.37245387  0.79370985    -0.00930
Br1591     Br  0.90309667  0.34256548  0.70620114    -0.00890
Br1592     Br  0.90255121  0.34353328  0.79255352    -0.00880
C1593       C  0.95417212  0.10126522  0.73173489    -0.02000
C1594       C  0.98459131  0.10936155  0.71349414     0.07680
C1595       C  0.51560918  0.11550540  0.73175718    -0.02120
C1596       C  0.51590088  0.11491957  0.76807626    -0.02120
C1597       C  0.98510858  0.10851092  0.78643998     0.07810
C1598       C  0.95441071  0.10091731  0.76817575    -0.02310
Br1599     Br  0.91211176  0.09335815  0.79322483    -0.00860
Br1600     Br  0.91159795  0.09396669  0.70671330    -0.00930
Br1601     Br  0.55811743  0.12518238  0.79274205    -0.00890
Br1602     Br  0.55723226  0.12721587  0.70698218    -0.00880
C1603       C  0.51571926  0.21514679  0.87070772    -0.02000
C1604       C  0.98535587  0.19663083  0.87835467     0.07680
C1605       C  0.95500293  0.21454228  0.88806206    -0.02120
C1606       C  0.95422228  0.25083527  0.88707826    -0.02120
C1607       C  0.98389678  0.26913469  0.87677187     0.07810
C1608       C  0.51491843  0.25128484  0.86960111    -0.02310
Br1609     Br  0.55560847  0.27635943  0.85547757    -0.00860
Br1610     Br  0.55803867  0.19087214  0.85980998    -0.00930
Br1611     Br  0.91154080  0.27537319  0.89598733    -0.00890
Br1612     Br  0.91372179  0.18935072  0.89972860    -0.00880
C1613       C  0.75383935  0.45392686  0.63044448    -0.02000
C1614       C  0.77058288  0.48537379  0.62441166     0.07680
C1615       C  0.75103299  0.01506551  0.61629930    -0.02120
C1616       C  0.71455106  0.01387170  0.61703407    -0.02120
C1617       C  0.69781839  0.48286603  0.62567208     0.07810
C1618       C  0.71754655  0.45260627  0.63063144    -0.02310
Br1619     Br  0.69491460  0.40946807  0.63907986    -0.00860
Br1620     Br  0.78080544  0.41326684  0.64116639    -0.00930
Br1621     Br  0.68771839  0.05511838  0.60875712    -0.00890
Br1622     Br  0.77439648  0.05781495  0.60688244    -0.00880
C1623       C  0.61935829  0.44178190  0.73220046    -0.02000
C1624       C  0.60627456  0.47062255  0.71427352     0.07680
C1625       C  0.58842715  0.99660867  0.73264152    -0.02120
C1626       C  0.58805116  0.99601584  0.76904697    -0.02120
C1627       C  0.60570964  0.46957088  0.78692868     0.07810
C1628       C  0.61927556  0.44133852  0.76840475    -0.02310
Br1629     Br  0.63897545  0.40249133  0.79263458    -0.00860
Br1630     Br  0.63800730  0.40298011  0.70730578    -0.00930
Br1631     Br  0.56562508  0.03267606  0.79423255    -0.00890
Br1632     Br  0.56666622  0.03420125  0.70826458    -0.00880
C1633       C  0.84488106  0.52916581  0.73159691    -0.02000
C1634       C  0.86083646  0.50174428  0.71354282     0.07680
C1635       C  0.88027557  0.47688128  0.73202102    -0.02120
C1636       C  0.88043076  0.47732136  0.76846387    -0.02120
C1637       C  0.86113024  0.50262285  0.78645934     0.07810
C1638       C  0.84503255  0.52960631  0.76786283    -0.02310
Br1639     Br  0.82143934  0.56648583  0.79208337    -0.00860
Br1640     Br  0.82113742  0.56547285  0.70665090    -0.00930
Br1641     Br  0.90422930  0.44109300  0.79328462    -0.00890
Br1642     Br  0.90384569  0.44006623  0.70788135    -0.00880
C1643       C  0.75447321  0.45501590  0.86995043    -0.02000
C1644       C  0.77054659  0.48710043  0.87454655     0.07680
C1645       C  0.75031337  0.01684937  0.88040716    -0.02120
C1646       C  0.71389649  0.01471289  0.87981450    -0.02120
C1647       C  0.69781706  0.48257850  0.87481460     0.07810
C1648       C  0.71823231  0.45259902  0.87117810    -0.02310
Br1649     Br  0.69642438  0.40848210  0.86569391    -0.00860
Br1650     Br  0.78212427  0.41529908  0.85783770    -0.00930
Br1651     Br  0.68609499  0.05610461  0.88184897    -0.00890
Br1652     Br  0.77257959  0.06091411  0.88568375    -0.00880
C1653       C  0.58286201  0.21297545  0.99017551    -0.02000
C1654       C  0.60074262  0.19565233  0.01695476     0.07680
C1655       C  0.61608379  0.21513116  0.54384704    -0.02120
C1656       C  0.61830055  0.25112003  0.54111698    -0.02120
C1657       C  0.60441027  0.26799823  0.01199021     0.07810
C1658       C  0.58452947  0.24919034  0.98786792    -0.02310
Br1659     Br  0.56199379  0.27268954  0.95008036    -0.00860
Br1660     Br  0.55889713  0.18734851  0.95477577    -0.00930
Br1661     Br  0.64191252  0.27723821  0.57650309    -0.00890
Br1662     Br  0.63689880  0.19217807  0.58312393    -0.00880
C1663       C  0.75369938  0.07946177  0.00237548    -0.02000
C1664       C  0.77172927  0.10525649  0.02144084     0.07680
C1665       C  0.75134075  0.12985537  0.53866115    -0.02120
C1666       C  0.71965375  0.13828967  0.52397335    -0.02120
C1667       C  0.69877204  0.11162889  0.01036597     0.07810
C1668       C  0.71681589  0.08125952  0.99910090    -0.02310
Br1669     Br  0.69421216  0.04485996  0.97363076    -0.00860
Br1670     Br  0.77846505  0.04248603  0.97960653    -0.00930
Br1671     Br  0.72427688  0.17998503  0.49718581    -0.00890
Br1672     Br  0.76957399  0.15987409  0.57394105    -0.00880
C1673       C  0.71724384  0.36191197  0.51567559    -0.02000
C1674       C  0.69673472  0.35322819  0.48687328     0.07680
C1675       C  0.71264492  0.34754120  0.95468259    -0.02120
C1676       C  0.74890797  0.35067839  0.95126730    -0.02120
C1677       C  0.76975442  0.35894788  0.48026691     0.07810
C1678       C  0.75350965  0.36473954  0.51254853    -0.02310
Br1679     Br  0.78091573  0.37184173  0.55379515    -0.00860
Br1680     Br  0.69567418  0.36575442  0.56030539    -0.00930
Br1681     Br  0.77021127  0.34088776  0.90734455    -0.00890
Br1682     Br  0.68484530  0.33217856  0.91617591    -0.00880
C1683       C  0.82627371  0.24823011  0.49000080    -0.02000
C1684       C  0.85631999  0.26875142  0.99175669     0.07680
C1685       C  0.88869543  0.25047407  0.99310426    -0.02120
C1686       C  0.88861577  0.21371671  0.99599809    -0.02120
C1687       C  0.85775341  0.19515010  0.98794320     0.07810
C1688       C  0.82897685  0.21487365  0.47813112    -0.02310
Br1689     Br  0.79540801  0.19873618  0.44510600    -0.00860
Br1690     Br  0.78354585  0.26011485  0.51331914    -0.00930
Br1691     Br  0.93033507  0.19091088  0.01167639    -0.00890
Br1692     Br  0.93307132  0.27288485  0.98969997    -0.00880
C1693       C  0.86657295  0.86824320  0.99715093     0.02970
C1694       C  0.87458593  0.83278174  0.50052351    -0.13170
C1695       C  0.85119831  0.80745456  0.48861729     0.00480
C1696       C  0.81975314  0.81939320  0.47417417    -0.11700
C1697       C  0.80804113  0.85298161  0.97932015     0.02970
C1698       C  0.83219761  0.87801022  0.98902096    -0.11120
H1699       H  0.89864262  0.82580773  0.51275265     0.08560
H1700       H  0.80212224  0.80161947  0.46192900     0.06090
H1701       H  0.82407509  0.90472613  0.99040534     0.05940
C1702       C  0.86887034  0.59753436  0.50226597     0.02970
C1703       C  0.83565979  0.58909978  0.51462736    -0.13170
C1704       C  0.80920777  0.61374041  0.51502697     0.00480
C1705       C  0.81807276  0.64787581  0.50707807    -0.11700
C1706       C  0.85128221  0.65759859  0.49561948     0.02970
C1707       C  0.87608746  0.63145164  0.49161521    -0.11120
H1708       H  0.83042439  0.56334155  0.52378003     0.08560
H1709       H  0.79829530  0.66736634  0.50930162     0.06090
H1710       H  0.90072058  0.63701241  0.47978141     0.05940
C1711       C  0.59889330  0.59758268  0.50873656     0.02970
C1712       C  0.63491030  0.59046868  0.50958139    -0.13170
C1713       C  0.65958435  0.61733464  0.50894284     0.00480
C1714       C  0.64616919  0.65112618  0.51099438    -0.11700
C1715       C  0.61095884  0.65876472  0.51301101     0.02970
C1716       C  0.58726112  0.63196566  0.51138644    -0.11120
H1717       H  0.64297697  0.56409206  0.51245415     0.08560
H1718       H  0.66250290  0.67292682  0.51321325     0.06090
H1719       H  0.55987294  0.63802783  0.51277503     0.05940
C1720       C  0.59933052  0.86517281  0.49934149     0.02970
C1721       C  0.63448614  0.87248212  0.99256562    -0.13170
C1722       C  0.65930203  0.84584839  0.99167246     0.00480
C1723       C  0.64891259  0.81185051  0.49750265    -0.11700
C1724       C  0.61423883  0.80419314  0.50490230     0.02970
C1725       C  0.58964927  0.83084838  0.50589366    -0.11120
H1726       H  0.64269215  0.89872967  0.98805005     0.08560
H1727       H  0.66806344  0.79131166  0.49698461     0.06090
H1728       H  0.56300365  0.82466255  0.51194642     0.05940
C1729       C  0.86841252  0.99124245  0.38436262     0.02970
C1730       C  0.83301446  0.98857212  0.39280623    -0.13170
C1731       C  0.80774381  0.99034650  0.36683881     0.00480
C1732       C  0.81762899  0.99395690  0.33242836    -0.11700
C1733       C  0.85246413  0.99794350  0.32350706     0.02970
C1734       C  0.87782137  0.99695106  0.34960003    -0.11120
H1735       H  0.82498299  0.98469838  0.41930849     0.08560
H1736       H  0.79788449  0.99404165  0.31239679     0.06090
H1737       H  0.90476416  0.00030336  0.34266375     0.05940
C1738       C  0.59987448  0.97831074  0.38482979     0.02970
C1739       C  0.59007996  0.97383489  0.34995831    -0.13170
C1740       C  0.61506542  0.97381150  0.32381497     0.00480
C1741       C  0.65001897  0.97779637  0.33255257    -0.11700
C1742       C  0.66036143  0.98087989  0.36704124     0.02970
C1743       C  0.63534371  0.98143798  0.39319827    -0.11120
H1744       H  0.56310094  0.97045989  0.34294361     0.08560
H1745       H  0.66945297  0.97781881  0.31236265     0.06090
H1746       H  0.64363057  0.98425297  0.41982860     0.05940
C1747       C  0.59976733  0.98018557  0.11654498     0.02970
C1748       C  0.59028105  0.97578952  0.15139458    -0.13170
C1749       C  0.61551174  0.97550830  0.17747070     0.00480
C1750       C  0.65044486  0.97940623  0.16862616    -0.11700
C1751       C  0.66044695  0.98255941  0.13403998     0.02970
C1752       C  0.63511603  0.98322533  0.10805988    -0.11120
H1753       H  0.56335954  0.97238385  0.15841347     0.08560
H1754       H  0.67010179  0.97900517  0.18872743     0.06090
H1755       H  0.64311827  0.98573226  0.08137816     0.05940
C1756       C  0.86843808  0.98933634  0.11585755     0.02970
C1757       C  0.87770549  0.99526604  0.15069401    -0.13170
C1758       C  0.85224756  0.99639743  0.17648791     0.00480
C1759       C  0.81745310  0.99220565  0.16718563    -0.11700
C1760       C  0.80773695  0.98832952  0.13264217     0.02970
C1761       C  0.83311197  0.98651080  0.10699845    -0.11120
H1762       H  0.90460448  0.99882592  0.15790074     0.08560
H1763       H  0.79761911  0.99251631  0.18698665     0.06090
H1764       H  0.82519852  0.98259455  0.08039370     0.05940
C1765       C  0.98391913  0.59851064  0.38467345     0.02970
C1766       C  0.98398275  0.63363755  0.39445131    -0.13170
C1767       C  0.98376871  0.65959526  0.36929524     0.00480
C1768       C  0.98322432  0.65061052  0.33431480    -0.11700
C1769       C  0.98379319  0.61612426  0.32397173     0.02970
C1770       C  0.98393694  0.59003702  0.34909317    -0.11120
H1771       H  0.98448837  0.64097445  0.42147253     0.08560
H1772       H  0.98314862  0.67071968  0.31488746     0.06090
H1773       H  0.98433250  0.56336877  0.34080759     0.05940
C1774       C  0.98125255  0.86687815  0.38434379     0.02970
C1775       C  0.98252661  0.83172391  0.39357812    -0.13170
C1776       C  0.98125935  0.80608041  0.36807963     0.00480
C1777       C  0.97856248  0.81536067  0.33332539    -0.11700
C1778       C  0.97741118  0.84997450  0.32361116     0.02970
C1779       C  0.97875936  0.87575027  0.34903416    -0.11120
H1780       H  0.98476929  0.82411767  0.42041871     0.08560
H1781       H  0.97786429  0.79545632  0.31362028     0.06090
H1782       H  0.97791910  0.90250276  0.34115571     0.05940
C1783       C  0.98334289  0.59881499  0.11546203     0.02970
C1784       C  0.98351013  0.59062574  0.15102808    -0.13170
C1785       C  0.98293855  0.61689715  0.17602506     0.00480
C1786       C  0.98189391  0.65132024  0.16557182    -0.11700
C1787       C  0.98210321  0.65994459  0.13054128     0.02970
C1788       C  0.98273088  0.63381632  0.10552401    -0.11120
H1789       H  0.98437233  0.56402927  0.15941185     0.08560
H1790       H  0.98170157  0.67160693  0.18489266     0.06090
H1791       H  0.98305155  0.64094766  0.07847559     0.05940
C1792       C  0.98119071  0.86691799  0.11576422     0.02970
C1793       C  0.97902315  0.87543250  0.15117841    -0.13170
C1794       C  0.97814433  0.84939240  0.17623314     0.00480
C1795       C  0.97954799  0.81485088  0.16599734    -0.11700
C1796       C  0.98166915  0.80598981  0.13103836     0.02970
C1797       C  0.98249118  0.83189771  0.10598970    -0.11120
H1798       H  0.97800402  0.90210891  0.15940815     0.08560
H1799       H  0.97906055  0.79472262  0.18538237     0.06090
H1800       H  0.98423047  0.82456625  0.07901923     0.05940
O1801       O  0.92601338  0.88450587  0.50079621    -0.80290
O1802       O  0.92779587  0.58062995  0.49992080    -0.81840
O1803       O  0.88545890  0.98505565  0.05702347    -0.78860
O1804       O  0.88540140  0.98640018  0.44336070    -0.77240
O1805       O  0.92732121  0.98661179  0.40175459    -0.79030
O1806       O  0.92738192  0.98544486  0.09890945    -0.79970
O1807       O  0.88591649  0.53916706  0.50092639    -0.81290
O1808       O  0.88446224  0.92669043  0.50027838    -0.81580
Eu1809     Eu  0.91380608  0.98266006  0.50027137     2.39200
O1810       O  0.94894318  0.51728126  0.46525324    -0.89090
O1811       O  0.94848470  0.94746576  0.03572741    -0.92700
C1812       C  0.89406865  0.89478162  0.50031167     1.01990
C1813       C  0.89593690  0.57077968  0.50072104     1.01810
C1814       C  0.89545108  0.98634706  0.08889440     1.01760
C1815       C  0.89539948  0.98789659  0.41156559     0.99620
H1816       H  0.93487475  0.53219678  0.04949089     0.29360
O1817       O  0.94912342  0.51747536  0.03523002    -1.01480
H1818       H  0.93371828  0.93354171  0.45022271     0.29400
O1819       O  0.94848486  0.94758460  0.46476921    -1.04020
O1820       O  0.54092929  0.57904581  0.50407342    -0.81250
O1821       O  0.54049412  0.88376718  0.49999804    -0.80780
O1822       O  0.98450415  0.53949231  0.09894079    -0.79220
O1823       O  0.98435465  0.53925552  0.40142858    -0.82560
O1824       O  0.98263382  0.92581923  0.40153470    -0.80420
O1825       O  0.98229697  0.92596261  0.09911580    -0.79070
O1826       O  0.58295083  0.98080045  0.05745454    -0.80590
O1827       O  0.58324136  0.98051815  0.44395855    -0.82510
O1828       O  0.54089307  0.98173098  0.09891261    -0.79250
O1829       O  0.54106233  0.98011870  0.40232076    -0.81930
O1830       O  0.98372427  0.58060788  0.05675944    -0.77660
O1831       O  0.98258745  0.88449022  0.05708602    -0.77690
O1832       O  0.98292421  0.88424488  0.44332053    -0.77340
O1833       O  0.98423326  0.58059097  0.44354530    -0.80830
O1834       O  0.58357886  0.53802669  0.50422644    -0.80260
O1835       O  0.58305218  0.92455919  0.49975228    -0.78590
Eu1836     Eu  0.98434130  0.55178302  0.50018365     2.39770
Eu1837     Eu  0.98338881  0.91244540  0.50030016     2.39570
Eu1838     Eu  0.98404308  0.98248972  0.07054519     2.38400
Eu1839     Eu  0.98412326  0.98250132  0.43014714     2.39880
Eu1840     Eu  0.55464041  0.98155567  0.50059437     2.39790
O1841       O  0.51882928  0.94712954  0.46552809    -0.93000
O1842       O  0.51939073  0.51678662  0.03546261    -0.91890
C1843       C  0.57297659  0.56964275  0.50557684     1.02170
C1844       C  0.57265513  0.89296949  0.49971460     1.00890
C1845       C  0.98397360  0.57119363  0.08875084     1.00280
C1846       C  0.98417721  0.57103065  0.41153365     1.02060
C1847       C  0.98243991  0.89404210  0.41142617     1.01210
C1848       C  0.98207243  0.89422262  0.08900925     1.00060
C1849       C  0.57285732  0.98100434  0.08922006     1.00110
C1850       C  0.57307215  0.97969016  0.41213818     1.02730
H1851       H  0.53329543  0.93236217  0.04993916     0.30100
O1852       O  0.51905595  0.94695626  0.03553088    -1.05160
H1853       H  0.53460590  0.53150514  0.45088548     0.32150
O1854       O  0.52004143  0.51718966  0.46503016    -1.07720
C1855       C  0.95242364  0.71497874  0.11402444    -0.02000
C1856       C  0.98331854  0.69677835  0.12109226     0.07680
C1857       C  0.51468103  0.71479816  0.12504261    -0.02120
C1858       C  0.51463971  0.75098185  0.12538946    -0.02120
C1859       C  0.98322932  0.76917814  0.12150337     0.07810
C1860       C  0.95244764  0.75125376  0.11394788    -0.02310
Br1861     Br  0.90998639  0.77649615  0.10602376    -0.00860
Br1862     Br  0.90967357  0.69024185  0.10758060    -0.00930
Br1863     Br  0.55715818  0.77575781  0.13333389    -0.00890
Br1864     Br  0.55724816  0.68971157  0.13239025    -0.00880
C1865       C  0.50668828  0.86538545  0.26838032    -0.02000
C1866       C  0.97588311  0.85817503  0.28634700     0.07680
C1867       C  0.94485955  0.85271308  0.26786717    -0.02120
C1868       C  0.94509028  0.85231489  0.23152065    -0.02120
C1869       C  0.97633963  0.85742193  0.21356136     0.07810
C1870       C  0.50691159  0.86499570  0.23200533    -0.02310
Br1871     Br  0.54966245  0.87151309  0.20737387    -0.00860
Br1872     Br  0.54916011  0.87245385  0.29370986    -0.00930
Br1873     Br  0.90309672  0.84256543  0.20620126    -0.00890
Br1874     Br  0.90255131  0.84353319  0.29255364    -0.00880
C1875       C  0.95417209  0.60126521  0.23173480    -0.02000
C1876       C  0.98459128  0.60936161  0.21349408     0.07680
C1877       C  0.51560908  0.61550548  0.23175715    -0.02120
C1878       C  0.51590077  0.61491967  0.26807623    -0.02120
C1879       C  0.98510847  0.60851104  0.28643992     0.07810
C1880       C  0.95441064  0.60091733  0.26817566    -0.02310
Br1881     Br  0.91211167  0.59335808  0.29322469    -0.00860
Br1882     Br  0.91159796  0.59396655  0.20671318    -0.00930
Br1883     Br  0.55811731  0.62518258  0.29274203    -0.00890
Br1884     Br  0.55723215  0.62721602  0.20698216    -0.00880
C1885       C  0.51571920  0.71514679  0.37070790    -0.02000
C1886       C  0.98535568  0.69663080  0.37835478     0.07680
C1887       C  0.95500269  0.71454228  0.38806195    -0.02120
C1888       C  0.95422210  0.75083526  0.38707818    -0.02120
C1889       C  0.98389671  0.76913464  0.37677202     0.07810
C1890       C  0.51491839  0.75128483  0.36960133    -0.02310
Br1891     Br  0.55560849  0.77635943  0.35547796    -0.00860
Br1892     Br  0.55803862  0.69087212  0.35981028    -0.00930
Br1893     Br  0.91154059  0.77537324  0.39598696    -0.00890
Br1894     Br  0.91372142  0.68935075  0.39972811    -0.00880
C1895       C  0.75383945  0.95392678  0.13044453    -0.02000
C1896       C  0.77058298  0.98537372  0.12441170     0.07680
C1897       C  0.75103294  0.51506553  0.11629923    -0.02120
C1898       C  0.71455102  0.51387173  0.11703399    -0.02120
C1899       C  0.69781848  0.98286596  0.12567216     0.07810
C1900       C  0.71754664  0.95260620  0.13063151    -0.02310
Br1901     Br  0.69491469  0.90946800  0.13907997    -0.00860
Br1902     Br  0.78080553  0.91326676  0.14116643    -0.00930
Br1903     Br  0.68771835  0.55511841  0.10875703    -0.00890
Br1904     Br  0.77439644  0.55781497  0.10688238    -0.00880
C1905       C  0.61935832  0.94178185  0.23220051    -0.02000
C1906       C  0.60627460  0.97062250  0.21427357     0.07680
C1907       C  0.58842729  0.49660883  0.23264156    -0.02120
C1908       C  0.58805133  0.49601594  0.26904701    -0.02120
C1909       C  0.60570970  0.96957085  0.28692873     0.07810
C1910       C  0.61927561  0.94133848  0.26840480    -0.02310
Br1911     Br  0.63897548  0.90249128  0.29263463    -0.00860
Br1912     Br  0.63800730  0.90298004  0.20730583    -0.00930
Br1913     Br  0.56562546  0.53267625  0.29423265    -0.00890
Br1914     Br  0.56666645  0.53420149  0.20826467    -0.00880
C1915       C  0.84488116  0.02916578  0.23159694    -0.02000
C1916       C  0.86083655  0.00174425  0.21354285     0.07680
C1917       C  0.88027565  0.97688124  0.23202106    -0.02120
C1918       C  0.88043083  0.97732133  0.26846391    -0.02120
C1919       C  0.86113032  0.00262283  0.28645938     0.07810
C1920       C  0.84503264  0.02960629  0.26786285    -0.02310
Br1921     Br  0.82143942  0.06648581  0.29208338    -0.00860
Br1922     Br  0.82113753  0.06547281  0.20665092    -0.00930
Br1923     Br  0.90422934  0.94109294  0.29328467    -0.00890
Br1924     Br  0.90384575  0.94006618  0.20788140    -0.00880
C1925       C  0.75447330  0.95501590  0.36995048    -0.02000
C1926       C  0.77054667  0.98710044  0.37454659     0.07680
C1927       C  0.75031326  0.51684874  0.38040806    -0.02120
C1928       C  0.71389639  0.51471219  0.37981557    -0.02120
C1929       C  0.69781714  0.98257849  0.37481463     0.07810
C1930       C  0.71823240  0.95259901  0.37117815    -0.02310
Br1931     Br  0.69642448  0.90848208  0.36569398    -0.00860
Br1932     Br  0.78212437  0.91529909  0.35783775    -0.00930
Br1933     Br  0.68609481  0.55610378  0.38185152    -0.00890
Br1934     Br  0.77257943  0.56091341  0.38568556    -0.00880
C1935       C  0.58286244  0.71297534  0.49017605    -0.02000
C1936       C  0.60074292  0.69565229  0.51695547     0.07680
C1937       C  0.61608378  0.71513114  0.04384706    -0.02120
C1938       C  0.61830060  0.75112001  0.04111699    -0.02120
C1939       C  0.60441042  0.76799823  0.51199074     0.07810
C1940       C  0.58452979  0.74919023  0.48786840    -0.02310
Br1941     Br  0.56199420  0.77268933  0.45008072    -0.00860
Br1942     Br  0.55889787  0.68734837  0.45477610    -0.00930
Br1943     Br  0.64191259  0.77723817  0.07650310    -0.00890
Br1944     Br  0.63689876  0.69217803  0.08312396    -0.00880
C1945       C  0.75369956  0.57946132  0.50237637    -0.02000
C1946       C  0.77172939  0.60525690  0.52144066     0.07680
C1947       C  0.75134067  0.62985536  0.03866111    -0.02120
C1948       C  0.71965367  0.63828964  0.02397331    -0.02120
C1949       C  0.69877200  0.61162824  0.51036637     0.07810
C1950       C  0.71681598  0.58125859  0.49910213    -0.02310
Br1951     Br  0.69421251  0.54485786  0.47363346    -0.00860
Br1952     Br  0.77846534  0.54248510  0.47960829    -0.00930
Br1953     Br  0.72427679  0.67998497  0.99718570    -0.00890
Br1954     Br  0.76957389  0.65987410  0.07394101    -0.00880
C1955       C  0.71724397  0.86191207  0.01567551    -0.02000
C1956       C  0.69673485  0.85322814  0.98687325     0.07680
C1957       C  0.71264489  0.84754127  0.45468278    -0.02120
C1958       C  0.74890793  0.85067849  0.45126742    -0.02120
C1959       C  0.76975456  0.85894783  0.98026685     0.07810
C1960       C  0.75350978  0.86473965  0.01254844    -0.02310
Br1961     Br  0.78091584  0.87184205  0.05379504    -0.00860
Br1962     Br  0.69567430  0.86575473  0.06030530    -0.00930
Br1963     Br  0.77021114  0.84088789  0.40734462    -0.00890
Br1964     Br  0.68484520  0.83217863  0.41617615    -0.00880
C1965       C  0.82627378  0.74823012  0.99000101    -0.02000
C1966       C  0.85632008  0.76875152  0.49175632     0.07680
C1967       C  0.88869555  0.75047420  0.49310377    -0.02120
C1968       C  0.88861593  0.71371682  0.49599736    -0.02120
C1969       C  0.85775359  0.69515023  0.48794230     0.07810
C1970       C  0.82897685  0.71487367  0.97813127    -0.02310
Br1971     Br  0.79540799  0.69873634  0.94510611    -0.00860
Br1972     Br  0.78354595  0.76011493  0.01331936    -0.00930
Br1973     Br  0.93033524  0.69091095  0.51167557    -0.00890
Br1974     Br  0.93307141  0.77288502  0.48969958    -0.00880
C1975       C  0.86657290  0.86824325  0.49715093     0.02970
C1976       C  0.87458595  0.83278168  0.00052362    -0.13170
C1977       C  0.85119831  0.80745449  0.98861746     0.00480
C1978       C  0.81975318  0.81939311  0.97417423    -0.11700
C1979       C  0.80804107  0.85298168  0.47932017     0.02970
C1980       C  0.83219754  0.87801028  0.48902101    -0.11120
H1981       H  0.89864263  0.82580768  0.01275280     0.08560
H1982       H  0.80212230  0.80161935  0.96192909     0.06090
H1983       H  0.82407502  0.90472619  0.49040545     0.05940
C1984       C  0.86887015  0.59753415  0.00226611     0.02970
C1985       C  0.83565956  0.58909942  0.01462732    -0.13170
C1986       C  0.80920761  0.61374012  0.01502744     0.00480
C1987       C  0.81807268  0.64787565  0.00707921    -0.11700
C1988       C  0.85128204  0.65759847  0.99562039     0.02970
C1989       C  0.87608725  0.63145155  0.99161570    -0.11120
H1990       H  0.83042405  0.56334102  0.02377947     0.08560
H1991       H  0.79829535  0.66736624  0.00930335     0.06090
H1992       H  0.90072033  0.63701243  0.97978186     0.05940
C1993       C  0.59889341  0.59758272  0.00873660     0.02970
C1994       C  0.63491050  0.59046899  0.00958137    -0.13170
C1995       C  0.65958435  0.61733518  0.00894205     0.00480
C1996       C  0.64616892  0.65112663  0.01099240    -0.11700
C1997       C  0.61095858  0.65876488  0.01301000     0.02970
C1998       C  0.58726103  0.63196565  0.01138631    -0.11120
H1999       H  0.64297750  0.56409246  0.01245443     0.08560
H2000       H  0.66250230  0.67292757  0.01320943     0.06090
H2001       H  0.55987283  0.63802767  0.01277527     0.05940
C2002       C  0.59933054  0.86517286  0.99934128     0.02970
C2003       C  0.63448611  0.87248207  0.49256580    -0.13170
C2004       C  0.65930203  0.84584836  0.49167273     0.00480
C2005       C  0.64891254  0.81185052  0.99750222    -0.11700
C2006       C  0.61423877  0.80419316  0.00490183     0.02970
C2007       C  0.58964925  0.83084842  0.00589331    -0.11120
H2008       H  0.64269210  0.89872961  0.48805011     0.08560
H2009       H  0.66806336  0.79131165  0.99698411     0.06090
H2010       H  0.56300362  0.82466260  0.01194605     0.05940
C2011       C  0.86841255  0.99124245  0.88436265     0.02970
C2012       C  0.83301449  0.98857213  0.89280628    -0.13170
C2013       C  0.80774383  0.99034651  0.86683886     0.00480
C2014       C  0.81762901  0.99395690  0.83242841    -0.11700
C2015       C  0.85246415  0.99794350  0.82350709     0.02970
C2016       C  0.87782140  0.99695106  0.84960006    -0.11120
H2017       H  0.82498303  0.98469839  0.91930853     0.08560
H2018       H  0.79788451  0.99404165  0.81239684     0.06090
H2019       H  0.90476419  0.00030336  0.84266378     0.05940
C2020       C  0.59987447  0.97831078  0.88482982     0.02970
C2021       C  0.59007996  0.97383493  0.84995833    -0.13170
C2022       C  0.61506543  0.97381153  0.82381501     0.00480
C2023       C  0.65001898  0.97779640  0.83255262    -0.11700
C2024       C  0.66036144  0.98087993  0.86704129     0.02970
C2025       C  0.63534370  0.98143803  0.89319831    -0.11120
H2026       H  0.56310095  0.97045992  0.84294362     0.08560
H2027       H  0.66945299  0.97781884  0.81236270     0.06090
H2028       H  0.64363055  0.98425302  0.91982864     0.05940
C2029       C  0.59976735  0.98018556  0.61654502     0.02970
C2030       C  0.59028106  0.97578951  0.65139462    -0.13170
C2031       C  0.61551174  0.97550829  0.67747074     0.00480
C2032       C  0.65044486  0.97940622  0.66862621    -0.11700
C2033       C  0.66044696  0.98255940  0.63404003     0.02970
C2034       C  0.63511605  0.98322532  0.60805993    -0.11120
H2035       H  0.56335954  0.97238384  0.65841349     0.08560
H2036       H  0.67010179  0.97900516  0.68872749     0.06090
H2037       H  0.64311830  0.98573224  0.58137821     0.05940
C2038       C  0.86843806  0.98933634  0.61585757     0.02970
C2039       C  0.87770549  0.99526604  0.65069403    -0.13170
C2040       C  0.85224757  0.99639742  0.67648795     0.00480
C2041       C  0.81745311  0.99220562  0.66718567    -0.11700
C2042       C  0.80773695  0.98832950  0.63264221     0.02970
C2043       C  0.83311195  0.98651079  0.60699848    -0.11120
H2044       H  0.90460448  0.99882592  0.65790075     0.08560
H2045       H  0.79761912  0.99251627  0.68698670     0.06090
H2046       H  0.82519849  0.98259455  0.58039374     0.05940
C2047       C  0.98391914  0.59851066  0.88467345     0.02970
C2048       C  0.98398280  0.63363760  0.89445130    -0.13170
C2049       C  0.98376876  0.65959529  0.86929522     0.00480
C2050       C  0.98322435  0.65061053  0.83431478    -0.11700
C2051       C  0.98379322  0.61612427  0.82397172     0.02970
C2052       C  0.98393696  0.59003704  0.84909318    -0.11120
H2053       H  0.98448843  0.64097451  0.92147252     0.08560
H2054       H  0.98314866  0.67071968  0.81488743     0.06090
H2055       H  0.98433251  0.56336878  0.84080762     0.05940
C2056       C  0.98125260  0.86687819  0.88434378     0.02970
C2057       C  0.98252666  0.83172395  0.89357809    -0.13170
C2058       C  0.98125939  0.80608046  0.86807958     0.00480
C2059       C  0.97856250  0.81536074  0.83332536    -0.11700
C2060       C  0.97741121  0.84997458  0.82361115     0.02970
C2061       C  0.97875940  0.87575033  0.84903415    -0.11120
H2062       H  0.98476936  0.82411770  0.92041868     0.08560
H2063       H  0.97786429  0.79545640  0.81362024     0.06090
H2064       H  0.97791915  0.90250283  0.84115572     0.05940
C2065       C  0.98334286  0.59881501  0.61546202     0.02970
C2066       C  0.98351010  0.59062574  0.65102808    -0.13170
C2067       C  0.98293851  0.61689714  0.67602506     0.00480
C2068       C  0.98189384  0.65132023  0.66557182    -0.11700
C2069       C  0.98210313  0.65994459  0.63054128     0.02970
C2070       C  0.98273083  0.63381632  0.60552401    -0.11120
H2071       H  0.98437231  0.56402927  0.65941185     0.08560
H2072       H  0.98170150  0.67160692  0.68489266     0.06090
H2073       H  0.98305151  0.64094766  0.57847559     0.05940
C2074       C  0.98119065  0.86691801  0.61576421     0.02970
C2075       C  0.97902311  0.87543252  0.65117840    -0.13170
C2076       C  0.97814431  0.84939243  0.67623314     0.00480
C2077       C  0.97954796  0.81485090  0.66599735    -0.11700
C2078       C  0.98166910  0.80598983  0.63103836     0.02970
C2079       C  0.98249111  0.83189772  0.60598970    -0.11120
H2080       H  0.97800398  0.90210893  0.65940813     0.08560
H2081       H  0.97906054  0.79472265  0.68538238     0.06090
H2082       H  0.98423040  0.82456625  0.57901923     0.05940
O2083       O  0.92601346  0.88450583  0.00079621    -0.80290
O2084       O  0.92779570  0.58062985  0.99992083    -0.81840
O2085       O  0.88545886  0.98505568  0.55702348    -0.78860
O2086       O  0.88540145  0.98640016  0.94336073    -0.77240
O2087       O  0.92732126  0.98661182  0.90175463    -0.79030
O2088       O  0.92738189  0.98544486  0.59890946    -0.79970
O2089       O  0.88591646  0.53916665  0.00092637    -0.81290
O2090       O  0.88446231  0.92669038  0.00027837    -0.81580
Eu2091     Eu  0.91380614  0.98266003  0.00027139     2.39200
O2092       O  0.94894356  0.51728075  0.96525335    -0.89090
O2093       O  0.94848464  0.94746579  0.53572739    -0.92700
C2094       C  0.89406871  0.89478157  0.00031166     1.01990
C2095       C  0.89593676  0.57077947  0.00072106     1.01810
C2096       C  0.89545105  0.98634707  0.58889441     1.01760
C2097       C  0.89539953  0.98789659  0.91156562     0.99620
H2098       H  0.93487452  0.53219714  0.54949088     0.29360
O2099       O  0.94912303  0.51747587  0.53523007    -1.01480
H2100       H  0.93371828  0.93354164  0.95022265     0.29400
O2101       O  0.94848493  0.94758460  0.96476922    -1.04020
O2102       O  0.54092945  0.57904563  0.00407355    -0.81250
O2103       O  0.54049414  0.88376721  0.99999794    -0.80780
O2104       O  0.98450408  0.53949282  0.59894108    -0.79220
O2105       O  0.98435469  0.53925509  0.90142889    -0.82560
O2106       O  0.98263389  0.92581926  0.90153471    -0.80420
O2107       O  0.98229691  0.92596262  0.59911578    -0.79070
O2108       O  0.58295087  0.98080044  0.55745457    -0.80590
O2109       O  0.58324132  0.98051819  0.94395857    -0.82510
O2110       O  0.54089310  0.98173099  0.59891263    -0.79250
O2111       O  0.54106230  0.98011871  0.90232076    -0.81930
O2112       O  0.98372425  0.58060786  0.55675941    -0.77660
O2113       O  0.98258736  0.88449022  0.55708601    -0.77690
O2114       O  0.98292427  0.88424490  0.94332053    -0.77340
O2115       O  0.98423331  0.58059102  0.94354530    -0.80830
O2116       O  0.58357913  0.53802663  0.00422656    -0.80260
O2117       O  0.58305219  0.92455925  0.99975219    -0.78590
Eu2118     Eu  0.98434101  0.55178310  0.00018366     2.39770
Eu2119     Eu  0.98338888  0.91244541  0.00030017     2.39570
Eu2120     Eu  0.98404301  0.98248973  0.57054517     2.38400
Eu2121     Eu  0.98412332  0.98250134  0.93014717     2.39880
Eu2122     Eu  0.55464033  0.98155568  0.00059435     2.39790
O2123       O  0.51882923  0.94712952  0.96552808    -0.93000
O2124       O  0.51939068  0.51678666  0.53546261    -0.91890
C2125       C  0.57297678  0.56964266  0.00557699     1.02170
C2126       C  0.57265515  0.89296954  0.99971447     1.00890
C2127       C  0.98397359  0.57119375  0.58875084     1.00280
C2128       C  0.98417722  0.57103058  0.91153367     1.02060
C2129       C  0.98243998  0.89404213  0.91142617     1.01210
C2130       C  0.98207236  0.89422263  0.58900924     1.00060
C2131       C  0.57285735  0.98100434  0.58922009     1.00110
C2132       C  0.57307213  0.97969019  0.91213819     1.02730
H2133       H  0.53329544  0.93236220  0.54993918     0.30100
O2134       O  0.51905597  0.94695630  0.53553090    -1.05160
H2135       H  0.53460605  0.53150524  0.95088541     0.32150
O2136       O  0.52004148  0.51718963  0.96503019    -1.07720
C2137       C  0.95242365  0.71497875  0.61402427    -0.02000
C2138       C  0.98331851  0.69677836  0.62109227     0.07680
C2139       C  0.51468103  0.71479819  0.62504282    -0.02120
C2140       C  0.51463971  0.75098188  0.62538963    -0.02120
C2141       C  0.98322930  0.76917815  0.62150338     0.07810
C2142       C  0.95244766  0.75125378  0.61394774    -0.02310
Br2143     Br  0.90998644  0.77649617  0.60602344    -0.00860
Br2144     Br  0.90967363  0.69024186  0.60758014    -0.00930
Br2145     Br  0.55715815  0.77575785  0.63333422    -0.00890
Br2146     Br  0.55724811  0.68971161  0.63239075    -0.00880
C2147       C  0.50668826  0.86538548  0.76838029    -0.02000
C2148       C  0.97588312  0.85817512  0.78634698     0.07680
C2149       C  0.94485956  0.85271314  0.76786717    -0.02120
C2150       C  0.94509028  0.85231492  0.73152065    -0.02120
C2151       C  0.97633962  0.85742198  0.71356135     0.07810
C2152       C  0.50691157  0.86499574  0.73200530    -0.02310
Br2153     Br  0.54966242  0.87151313  0.70737384    -0.00860
Br2154     Br  0.54916009  0.87245389  0.79370984    -0.00930
Br2155     Br  0.90309672  0.84256544  0.70620128    -0.00890
Br2156     Br  0.90255133  0.84353323  0.79255365    -0.00880
C2157       C  0.95417206  0.60126522  0.73173482    -0.02000
C2158       C  0.98459125  0.60936160  0.71349407     0.07680
C2159       C  0.51560913  0.61550538  0.73175715    -0.02120
C2160       C  0.51590084  0.61491955  0.76807623    -0.02120
C2161       C  0.98510848  0.60851103  0.78643992     0.07810
C2162       C  0.95441064  0.60091734  0.76817568    -0.02310
Br2163     Br  0.91211168  0.59335812  0.79322473    -0.00860
Br2164     Br  0.91159792  0.59396658  0.70671321    -0.00930
Br2165     Br  0.55811740  0.62518238  0.79274202    -0.00890
Br2166     Br  0.55723221  0.62721584  0.70698215    -0.00880
C2167       C  0.51571927  0.71514678  0.87070772    -0.02000
C2168       C  0.98535575  0.69663084  0.87835473     0.07680
C2169       C  0.95500280  0.71454232  0.88806200    -0.02120
C2170       C  0.95422220  0.75083531  0.88707823    -0.02120
C2171       C  0.98389677  0.76913468  0.87677195     0.07810
C2172       C  0.51491844  0.75128482  0.86960112    -0.02310
Br2173     Br  0.55560848  0.77635942  0.85547759    -0.00860
Br2174     Br  0.55803868  0.69087213  0.85980998    -0.00930
Br2175     Br  0.91154072  0.77537328  0.89598716    -0.00890
Br2176     Br  0.91372157  0.68935080  0.89972834    -0.00880
C2177       C  0.75383945  0.95392677  0.63044460    -0.02000
C2178       C  0.77058298  0.98537370  0.62441176     0.07680
C2179       C  0.75103289  0.51506560  0.61629916    -0.02120
C2180       C  0.71455096  0.51387178  0.61703392    -0.02120
C2181       C  0.69781849  0.98286595  0.62567222     0.07810
C2182       C  0.71754665  0.95260619  0.63063159    -0.02310
Br2183     Br  0.69491470  0.90946800  0.63908009    -0.00860
Br2184     Br  0.78080554  0.91326675  0.64116650    -0.00930
Br2185     Br  0.68771828  0.55511844  0.60875691    -0.00890
Br2186     Br  0.77439637  0.55781503  0.60688224    -0.00880
C2187       C  0.61935831  0.94178185  0.73220056    -0.02000
C2188       C  0.60627460  0.97062250  0.71427360     0.07680
C2189       C  0.58842707  0.49660869  0.73264144    -0.02120
C2190       C  0.58805107  0.49601584  0.76904689    -0.02120
C2191       C  0.60570972  0.96957088  0.78692876     0.07810
C2192       C  0.61927561  0.94133849  0.76840484    -0.02310
Br2193     Br  0.63897548  0.90249130  0.79263469    -0.00860
Br2194     Br  0.63800727  0.90298002  0.70730589    -0.00930
Br2195     Br  0.56562495  0.53267603  0.79423248    -0.00890
Br2196     Br  0.56666612  0.53420127  0.70826451    -0.00880
C2197       C  0.84488116  0.02916577  0.73159697    -0.02000
C2198       C  0.86083657  0.00174424  0.71354288     0.07680
C2199       C  0.88027568  0.97688124  0.73202109    -0.02120
C2200       C  0.88043086  0.97732133  0.76846395    -0.02120
C2201       C  0.86113034  0.00262282  0.78645941     0.07810
C2202       C  0.84503265  0.02960628  0.76786289    -0.02310
Br2203     Br  0.82143943  0.06648580  0.79208342    -0.00860
Br2204     Br  0.82113751  0.06547279  0.70665095    -0.00930
Br2205     Br  0.90422939  0.94109296  0.79328471    -0.00890
Br2206     Br  0.90384579  0.94006619  0.70788143    -0.00880
C2207       C  0.75447331  0.95501592  0.86995052    -0.02000
C2208       C  0.77054669  0.98710045  0.87454664     0.07680
C2209       C  0.75031327  0.51684935  0.88040707    -0.02120
C2210       C  0.71389640  0.51471288  0.87981441    -0.02120
C2211       C  0.69781715  0.98257852  0.87481469     0.07810
C2212       C  0.71823241  0.95259904  0.87117819    -0.02310
Br2213     Br  0.69642448  0.90848212  0.86569399    -0.00860
Br2214     Br  0.78212437  0.91529910  0.85783779    -0.00930
Br2215     Br  0.68609489  0.55610460  0.88184887    -0.00890
Br2216     Br  0.77257949  0.56091409  0.88568368    -0.00880
C2217       C  0.58286196  0.71297549  0.99017550    -0.02000
C2218       C  0.60074256  0.69565235  0.01695474     0.07680
C2219       C  0.61608388  0.71513123  0.54384784    -0.02120
C2220       C  0.61830065  0.75112009  0.54111764    -0.02120
C2221       C  0.60441029  0.76799825  0.01199019     0.07810
C2222       C  0.58452946  0.74919038  0.98786790    -0.02310
Br2223     Br  0.56199379  0.77268960  0.95008035    -0.00860
Br2224     Br  0.55889703  0.68734856  0.95477578    -0.00930
Br2225     Br  0.64191248  0.77723842  0.57650373    -0.00890
Br2226     Br  0.63689849  0.69217838  0.58312510    -0.00880
C2227       C  0.75369932  0.57946183  0.00237548    -0.02000
C2228       C  0.77172920  0.60525653  0.02144088     0.07680
C2229       C  0.75134076  0.62985630  0.53865995    -0.02120
C2230       C  0.71965369  0.63828968  0.52397192    -0.02120
C2231       C  0.69877199  0.61162896  0.01036595     0.07810
C2232       C  0.71681583  0.58125959  0.99910087    -0.02310
Br2233     Br  0.69421210  0.54486008  0.97363066    -0.00860
Br2234     Br  0.77846498  0.54248610  0.97960649    -0.00930
Br2235     Br  0.72427592  0.67998315  0.49718123    -0.00890
Br2236     Br  0.76957349  0.65987641  0.57393890    -0.00880
C2237       C  0.71724399  0.86191204  0.51567570    -0.02000
C2238       C  0.69673483  0.85322814  0.48687346     0.07680
C2239       C  0.71264498  0.84754122  0.95468260    -0.02120
C2240       C  0.74890802  0.85067842  0.95126731    -0.02120
C2241       C  0.76975451  0.85894788  0.48026694     0.07810
C2242       C  0.75350979  0.86473964  0.51254857    -0.02310
Br2243     Br  0.78091592  0.87184199  0.55379513    -0.00860
Br2244     Br  0.69567440  0.86575462  0.56030553    -0.00930
Br2245     Br  0.77021132  0.84088776  0.90734456    -0.00890
Br2246     Br  0.68484536  0.83217855  0.91617593    -0.00880
C2247       C  0.82627394  0.74823013  0.49000040    -0.02000
C2248       C  0.85631998  0.76875144  0.99175671     0.07680
C2249       C  0.88869541  0.75047407  0.99310422    -0.02120
C2250       C  0.88861573  0.71371671  0.99599804    -0.02120
C2251       C  0.85775333  0.69515013  0.98794322     0.07810
C2252       C  0.82897715  0.71487382  0.47813034    -0.02310
Br2253     Br  0.79540855  0.69873678  0.44510479    -0.00860
Br2254     Br  0.78354608  0.76011454  0.51331890    -0.00930
Br2255     Br  0.93033505  0.69091085  0.01167624    -0.00890
Br2256     Br  0.93307130  0.77288480  0.98969983    -0.00880
loop_ 
_geom_bond_atom_site_label_1 
_geom_bond_atom_site_label_2 
_geom_bond_distance 
_geom_bond_site_symmetry_2 
_ccdc_geom_bond_type 
C1            C6   1.412       .  A
C1          C284   1.416   1_556  A
C1          C402   1.487   1_556  S
C2            C3   1.413       .  A
C2          C283   1.416       .  A
C2            H7   1.074       .  S
C3            C4   1.411       .  A
C3          C274   1.520       .  S
C4          C287   1.392       .  A
C4            H8   1.079       .  S
C5            C6   1.400       .  A
C5          C286   1.392       .  A
C5          C267   1.495       .  S
C6            H9   1.083       .  S
C10          C11   1.410       .  A
C10          C15   1.410       .  A
C10         C121   1.470       .  S
C11          C12   1.395       .  A
C11          H16   1.082       .  S
C12          C13   1.405       .  A
C12         C254   1.506       .  S
C13          C14   1.411       .  A
C13          H17   1.075       .  S
C14          C15   1.400       .  A
C14         C277   1.511       .  S
C15          H18   1.080       .  S
C19          C20   1.416       .  A
C19          C24   1.410       .  A
C19         C151   1.484       .  S
C20          C21   1.416       .  A
C20          H25   1.075       .  S
C21          C22   1.410       .  A
C21         C257   1.528       .  S
C22          C23   1.392       .  A
C22          H26   1.061       .  S
C23          C24   1.390       .  A
C23         C244   1.491       .  S
C24          H27   1.083       .  S
C28          C33   1.410       .  A
C28         C311   1.413       .  A
C28         C152   1.488       .  S
C29          C30   1.408       .  A
C29         C310   1.416       .  A
C29          H34   1.084       .  S
C30         C313   1.401       .  A
C30         C264   1.487       .  S
C31          C32   1.403       .  A
C31         C312   1.400       .  A
C31          H35   1.085       .  S
C32          C33   1.401       .  A
C32         C247   1.484       .  S
C33          H36   1.084       .  S
C37          C38   1.410       .  A
C37          C42   1.413       .  A
C37         C123   1.484       .  S
C38          C39   1.399       .  A
C38          H43   1.083       .  S
C39          C40   1.394       .  A
C39         C234   1.473       .  S
C40          C41   1.398       .  A
C40          H44   1.085       .  S
C41          C42   1.404       .  A
C41         C227   1.485       .  S
C42          H45   1.083       .  S
C46          C47   1.411       .  A
C46          C51   1.411       .  A
C46         C158   1.482       .  S
C47          C48   1.400       .  A
C47          H52   1.083       .  S
C48          C49   1.399       .  A
C48         C217   1.480       .  S
C49          C50   1.397       .  A
C49          H53   1.085       .  S
C50          C51   1.401       .  A
C50         C237   1.477       .  S
C51          H54   1.083       .  S
C55          C56   1.410       .  A
C55          C60   1.410       .  A
C55         C157   1.480       .  S
C56          C57   1.400       .  A
C56          H61   1.083       .  S
C57          C58   1.401       .  A
C57         C214   1.482       .  S
C58          C59   1.400       .  A
C58          H62   1.085       .  S
C59          C60   1.400       .  A
C59         C207   1.479       .  S
C60          H63   1.084       .  S
C64          C65   1.412       .  A
C64          C69   1.409       .  A
C64         C122   1.481       .  S
C65          C66   1.403       .  A
C65          H70   1.083       .  S
C66          C67   1.399       .  A
C66         C224   1.485       .  S
C67          C68   1.395       .  A
C67          H71   1.085       .  S
C68          C69   1.398       .  A
C68         C204   1.472       .  S
C69          H72   1.083       .  S
C73          C74   1.414       .  A
C73          C78   1.415       .  A
C73         C154   1.491       .  S
C74          C75   1.403       .  A
C74          H79   1.083       .  S
C75          C76   1.397       .  A
C75         C194   1.481       .  S
C76          C77   1.397       .  A
C76          H80   1.085       .  S
C77          C78   1.405       .  A
C77         C187   1.483       .  S
C78          H81   1.083       .  S
C82          C83   1.412       .  A
C82          C87   1.413       .  A
C82         C155   1.486       .  S
C83          C84   1.401       .  A
C83          H88   1.084       .  S
C84          C85   1.397       .  A
C84         C197   1.477       .  S
C85          C86   1.397       .  A
C85          H89   1.085       .  S
C86          C87   1.403       .  A
C86         C174   1.478       .  S
C87          H90   1.083       .  S
C91          C92   1.413       .  A
C91          C96   1.413       .  A
C91         C153   1.488       .  S
C92          C93   1.404       .  A
C92          H97   1.083       .  S
C93          C94   1.397       .  A
C93         C184   1.481       .  S
C94          C95   1.397       .  A
C94          H98   1.085       .  S
C95          C96   1.401       .  A
C95         C164   1.478       .  S
C96          H99   1.083       .  S
C100        C101   1.412       .  A
C100        C105   1.411       .  A
C100        C156   1.484       .  S
C101        C102   1.403       .  A
C101        H106   1.083       .  S
C102        C103   1.398       .  A
C102        C177   1.479       .  S
C103        C104   1.398       .  A
C103        H107   1.085       .  S
C104        C105   1.399       .  A
C104        C167   1.476       .  S
C105        H108   1.083       .  S
O109        C120   1.294       .  A
O109       Eu145   2.470       .  S
O110        C121   1.290       .  A
O110       Eu144   2.447       .  S
O111        C122   1.292       .  A
O111       Eu399   2.458       .  S
O112        C123   1.292       .  A
O112       Eu117   2.461       .  S
O113        C123   1.291       .  A
O113       Eu147   2.453       .  S
O114        C122   1.291       .  A
O114       Eu146   2.452       .  S
O115        C121   1.289       .  A
O115       Eu681   2.439   1_545  S
O116        C120   1.291       .  A
O116       Eu117   2.455       .  S
Eu117       O393   2.458       .  S
Eu117       O679   2.439       .  S
Eu117       O127   2.349       .  S
Eu117       O401   2.349       .  S
Eu117       O682   2.350       .  S
Eu117       O971   2.348       .  S
O118       Eu144   2.342       .  S
O118       Eu681   2.350   1_545  S
O118       Eu711   2.345   1_545  S
O119       Eu146   2.355       .  S
O119       Eu399   2.349       .  S
O119       Eu427   2.351       .  S
C120        C283   1.487       .  S
H124        O125   0.965       .  S
O125       Eu963   2.348   1_545  S
O125       Eu710   2.346   1_545  S
O125       Eu426   2.345       .  S
H126        O127   0.969       .  S
O127       Eu145   2.354       .  S
O127       Eu147   2.359       .  S
O128        C151   1.289       .  A
O128      Eu1272   2.435   1_455  S
O129        C152   1.293       .  A
O129      Eu1273   2.464   1_455  S
O130        C153   1.293       .  A
O130       Eu710   2.469   1_545  S
O131        C154   1.293       .  A
O131       Eu711   2.470   1_545  S
O132        C155   1.293       .  A
O132       Eu147   2.462       .  S
O133        C156   1.292       .  A
O133       Eu146   2.461       .  S
O134        C157   1.291       .  A
O134       Eu430   2.454       .  S
O135        C158   1.291       .  A
O135       Eu148   2.458       .  S
O136        C157   1.291       .  A
O136      Eu1274   2.449   1_455  S
O137        C158   1.291       .  A
O137      Eu1275   2.451   1_455  S
O138        C153   1.292       .  A
O138       Eu426   2.457       .  S
O139        C156   1.291       .  A
O139       Eu427   2.453       .  S
O140        C155   1.292       .  A
O140       Eu145   2.460       .  S
O141        C154   1.292       .  A
O141       Eu144   2.463       .  S
O142        C151   1.293       .  A
O142       Eu712   2.469   1_545  S
O143        C152   1.292       .  A
O143       Eu148   2.465       .  S
Eu144      O1256   2.435       .  S
Eu144       O420   2.457       .  S
Eu144       O407   2.345       .  S
Eu144      O1290   2.353       .  S
Eu144      O1560   2.348       .  S
Eu145      O1257   2.464       .  S
Eu145       O421   2.453       .  S
Eu145       O401   2.351       .  S
Eu145      O1277   2.352       .  S
Eu145      O1570   2.355       .  S
Eu146       O694   2.469       .  S
Eu146      O1264   2.450       .  S
Eu146       O689   2.346       .  S
Eu146      O1288   2.356       .  S
Eu146      O1842   2.349       .  S
Eu147       O695   2.470       .  S
Eu147      O1265   2.451       .  S
Eu147       O682   2.345       .  S
Eu147      O1277   2.352       .  S
Eu147      O1854   2.357       .  S
Eu148       O416   2.453       .  S
Eu148       O706   2.469       .  S
Eu148       O149   2.353       .  S
Eu148       O442   2.357       .  S
Eu148       O726   2.359       .  S
Eu148       O996   2.351       .  S
O149      Eu1273   2.352   1_455  S
O149      Eu1275   2.352   1_455  S
O150      Eu1554   2.348   1_455  S
O150      Eu1838   2.349   1_445  S
O150       Eu994   2.351   1_545  S
H159        O160   0.964       .  S
O160      Eu1555   2.356   1_455  S
O160      Eu1274   2.356   1_455  S
O160       Eu430   2.356       .  S
H161        O162   0.965       .  S
O162      Eu1272   2.353   1_455  S
O162      Eu1839   2.357   1_445  S
O162       Eu712   2.359   1_545  S
C163        C164   1.409       .  A
C163        C168   1.408       .  A
C163       Br170   1.928       .  S
C164       C1293   1.409       .  A
C165        C166   1.405       .  A
C165       C1292   1.409   1_455  A
C165       Br172   1.926       .  S
C166       C1295   1.407   1_455  A
C166       Br171   1.929       .  S
C167        C168   1.409       .  A
C167       C1294   1.407       .  A
C168       Br169   1.929       .  S
C173        C178   1.408       .  A
C173       C1302   1.409   1_455  A
C173       Br180   1.927       .  S
C174        C175   1.409       .  A
C174       C1301   1.409       .  A
C175        C176   1.407       .  A
C175       Br182   1.930       .  S
C176        C177   1.409       .  A
C176       Br181   1.929       .  S
C177       C1306   1.409       .  A
C178       C1305   1.409   1_455  A
C178       Br179   1.926       .  S
C183        C184   1.409       .  A
C183        C188   1.410       .  A
C183       Br190   1.926       .  S
C184       C1313   1.409       .  A
C185        C186   1.406       .  A
C185       C1312   1.409   1_455  A
C185       Br192   1.930       .  S
C186       C1315   1.410   1_455  A
C186       Br191   1.928       .  S
C187        C188   1.409       .  A
C187       C1314   1.410       .  A
C188       Br189   1.925       .  S
C193        C198   1.404       .  A
C193       C1322   1.410   1_455  A
C193       Br200   1.929       .  S
C194        C195   1.411       .  A
C194       C1321   1.410       .  A
C195        C196   1.410       .  A
C195       Br202   1.929       .  S
C196        C197   1.410       .  A
C196       Br201   1.930       .  S
C197       C1326   1.408       .  A
C198       C1325   1.408   1_455  A
C198       Br199   1.933       .  S
C203        C204   1.405       .  A
C203        C208   1.402       .  A
C203       Br210   1.931       .  S
C204        C769   1.410       .  A
C205        C206   1.409       .  A
C205        C768   1.410   1_545  A
C205       Br212   1.929       .  S
C206        C771   1.410   1_545  A
C206       Br211   1.929       .  S
C207        C208   1.410       .  A
C207        C770   1.410       .  A
C208       Br209   1.922       .  S
C213        C214   1.409       .  A
C213        C218   1.401       .  A
C213       Br220   1.924       .  S
C214        C779   1.411       .  A
C215        C216   1.409       .  A
C215        C778   1.411       .  A
C215       Br222   1.927   1_565  S
C216        C781   1.411       .  A
C216       Br221   1.927   1_565  S
C217        C218   1.408       .  A
C217        C780   1.411       .  A
C218       Br219   1.929       .  S
C223        C224   1.412       .  A
C223        C228   1.404       .  A
C223       Br230   1.935       .  S
C224        C225   1.413       .  A
C225        C226   1.410       .  A
C225       Br232   1.931       .  S
C226        C227   1.413       .  A
C226       Br231   1.931       .  S
C227        C228   1.412       .  A
C228       Br229   1.935       .  S
C233        C234   1.405       .  A
C233        C238   1.403       .  A
C233       Br240   1.928       .  S
C234        C799   1.409       .  A
C235        C236   1.408       .  A
C235        C798   1.409   1_545  A
C235       Br242   1.928       .  S
C236        C801   1.409   1_545  A
C236       Br241   1.929       .  S
C237        C238   1.409       .  A
C237        C800   1.409       .  A
C238       Br239   1.923       .  S
C243        C244   1.413       .  A
C243        C248   1.411       .  A
C243       Br250   1.928       .  S
C244        C527   1.415       .  A
C245        C246   1.404       .  A
C245        C526   1.415       .  A
C245       Br252   1.934       .  S
C246        C529   1.408       .  A
C246       Br251   1.931       .  S
C247        C248   1.411       .  A
C247        C528   1.408       .  A
C248       Br249   1.928       .  S
C253        C254   1.425       .  A
C253        C258   1.430       .  A
C253       Br260   1.933       .  S
C254        C537   1.403       .  A
C255        C256   1.385       .  A
C255        C536   1.403       .  A
C255       Br262   1.927       .  S
C256        C539   1.415       .  A
C256       Br261   1.933   1_554  S
C257        C258   1.434       .  A
C257        C538   1.415       .  A
C258       Br259   1.931       .  S
C263        C264   1.406   1_554  A
C263        C268   1.410       .  A
C263       Br270   1.925       .  S
C264        C547   1.407       .  A
C265        C266   1.412       .  A
C265        C546   1.407       .  A
C265       Br272   1.928       .  S
C266        C549   1.416       .  A
C266       Br271   1.927       .  S
C267        C268   1.417   1_556  A
C267        C548   1.416       .  A
C268       Br269   1.932       .  S
C273        C278   1.377       .  A
C273        C556   1.411       .  A
C273       Br280   1.936   1_556  S
C274        C275   1.434       .  A
C274        C555   1.411       .  A
C275        C276   1.432       .  A
C275       Br282   1.930       .  S
C276        C277   1.428       .  A
C276       Br281   1.930       .  S
C277        C560   1.397       .  A
C278        C559   1.397       .  A
C278       Br279   1.923       .  S
C283        C288   1.412       .  A
C284        C285   1.413   1_554  A
C284        H289   1.074       .  S
C285        C286   1.411       .  A
C285        C556   1.520       .  S
C286        H290   1.079       .  S
C287        C288   1.400       .  A
C287        C549   1.495       .  S
C288        H291   1.083       .  S
C292        C293   1.410       .  A
C292        C297   1.410   1_554  A
C292        C403   1.470       .  S
C293        C294   1.395       .  A
C293        H298   1.082       .  S
C294        C295   1.405       .  A
C294        C536   1.506       .  S
C295        C296   1.411   1_554  A
C295        H299   1.075       .  S
C296        C297   1.400       .  A
C296        C559   1.511       .  S
C297        H300   1.080       .  S
C301        C302   1.416       .  A
C301        C306   1.410       .  A
C301        C433   1.484       .  S
C302        C303   1.416       .  A
C302        H307   1.075       .  S
C303        C304   1.410       .  A
C303        C539   1.528       .  S
C304        C305   1.392       .  A
C304        H308   1.061       .  S
C305        C306   1.390       .  A
C305        C526   1.491       .  S
C306        H309   1.083       .  S
C310        C315   1.406   1_556  A
C310        C434   1.486       .  S
C311        C312   1.406       .  A
C311        H316   1.083       .  S
C312        C546   1.486       .  S
C313        C314   1.402   1_556  A
C313        H317   1.084       .  S
C314        C315   1.398       .  A
C314        C529   1.483       .  S
C315        H318   1.083       .  S
C319        C320   1.410       .  A
C319        C324   1.413       .  A
C319        C405   1.484       .  S
C320        C321   1.399       .  A
C320        H325   1.083       .  S
C321        C322   1.394       .  A
C321        C516   1.473       .  S
C322        C323   1.398       .  A
C322        H326   1.085       .  S
C323        C324   1.404       .  A
C323        C509   1.485       .  S
C324        H327   1.083       .  S
C328        C329   1.411       .  A
C328        C333   1.411       .  A
C328        C440   1.482       .  S
C329        C330   1.400       .  A
C329        H334   1.083       .  S
C330        C331   1.399       .  A
C330        C499   1.480       .  S
C331        C332   1.397       .  A
C331        H335   1.085       .  S
C332        C333   1.401       .  A
C332        C519   1.477       .  S
C333        H336   1.083       .  S
C337        C338   1.410       .  A
C337        C342   1.410       .  A
C337        C439   1.480       .  S
C338        C339   1.400       .  A
C338        H343   1.083       .  S
C339        C340   1.401       .  A
C339        C496   1.482       .  S
C340        C341   1.400       .  A
C340        H344   1.085       .  S
C341        C342   1.400       .  A
C341        C489   1.479       .  S
C342        H345   1.084       .  S
C346        C347   1.412       .  A
C346        C351   1.409       .  A
C346        C404   1.481       .  S
C347        C348   1.403       .  A
C347        H352   1.083       .  S
C348        C349   1.399       .  A
C348        C506   1.485       .  S
C349        C350   1.395       .  A
C349        H353   1.085       .  S
C350        C351   1.398       .  A
C350        C486   1.472       .  S
C351        H354   1.083       .  S
C355        C356   1.414       .  A
C355        C360   1.415       .  A
C355        C436   1.491       .  S
C356        C357   1.403       .  A
C356        H361   1.083       .  S
C357        C358   1.397       .  A
C357        C476   1.481       .  S
C358        C359   1.397       .  A
C358        H362   1.085       .  S
C359        C360   1.405       .  A
C359        C469   1.483       .  S
C360        H363   1.083       .  S
C364        C365   1.412       .  A
C364        C369   1.413       .  A
C364        C437   1.486       .  S
C365        C366   1.401       .  A
C365        H370   1.084       .  S
C366        C367   1.397       .  A
C366        C479   1.477       .  S
C367        C368   1.397       .  A
C367        H371   1.085       .  S
C368        C369   1.403       .  A
C368        C456   1.478       .  S
C369        H372   1.083       .  S
C373        C374   1.413       .  A
C373        C378   1.413       .  A
C373        C435   1.488       .  S
C374        C375   1.404       .  A
C374        H379   1.083       .  S
C375        C376   1.397       .  A
C375        C466   1.481       .  S
C376        C377   1.397       .  A
C376        H380   1.085       .  S
C377        C378   1.401       .  A
C377        C446   1.478       .  S
C378        H381   1.083       .  S
C382        C383   1.412       .  A
C382        C387   1.411       .  A
C382        C438   1.484       .  S
C383        C384   1.403       .  A
C383        H388   1.083       .  S
C384        C385   1.398       .  A
C384        C459   1.479       .  S
C385        C386   1.398       .  A
C385        H389   1.085       .  S
C386        C387   1.399       .  A
C386        C449   1.476       .  S
C387        H390   1.083       .  S
O391        C402   1.294       .  A
O391       Eu427   2.470       .  S
O392        C403   1.290   1_556  A
O392       Eu426   2.447   1_556  S
O393        C404   1.292       .  A
O394        C405   1.292       .  A
O394       Eu399   2.461   1_556  S
O395        C405   1.291       .  A
O395       Eu429   2.453       .  S
O396        C404   1.291       .  A
O396       Eu428   2.452       .  S
O397        C403   1.289       .  A
O397       Eu963   2.439   1_545  S
O398        C402   1.291       .  A
O398       Eu399   2.455       .  S
Eu399       O961   2.439       .  S
Eu399       O409   2.349   1_554  S
Eu399       O964   2.350   1_554  S
Eu399       O689   2.348       .  S
O400       Eu963   2.350   1_546  S
O400       Eu993   2.345   1_545  S
O400       Eu426   2.342   1_556  S
O401       Eu428   2.355       .  S
H406        O407   0.965       .  S
O407       Eu681   2.348   1_545  S
O407       Eu992   2.346   1_545  S
H408        O409   0.969       .  S
O409       Eu427   2.354   1_556  S
O409       Eu429   2.359       .  S
O410        C433   1.289       .  A
O410      Eu1554   2.435   1_455  S
O411        C434   1.297       .  A
O411      Eu1555   2.463   1_456  S
O412        C435   1.293       .  A
O412       Eu992   2.469   1_545  S
O413        C436   1.293       .  A
O413       Eu993   2.470   1_545  S
O414        C437   1.293       .  A
O414       Eu429   2.462       .  S
O415        C438   1.292       .  A
O415       Eu428   2.461       .  S
O416        C439   1.291       .  A
O417        C440   1.292       .  A
O417       Eu430   2.458   1_556  S
O418        C439   1.291       .  A
O418      Eu1556   2.450   1_455  S
O419        C440   1.291       .  A
O419      Eu1557   2.451   1_455  S
O420        C435   1.292       .  A
O421        C438   1.291       .  A
O422        C437   1.292       .  A
O422       Eu427   2.460   1_556  S
O423        C436   1.292       .  A
O423       Eu426   2.463   1_556  S
O424        C433   1.293       .  A
O424       Eu994   2.469   1_545  S
O425        C434   1.293       .  A
O425       Eu430   2.469   1_556  S
Eu426      O1538   2.435       .  S
Eu426      O1572   2.353   1_554  S
Eu426      O1278   2.348       .  S
Eu427      O1539   2.464   1_554  S
Eu427      O1559   2.352   1_554  S
Eu427      O1288   2.355       .  S
Eu428       O976   2.469       .  S
Eu428      O1546   2.450       .  S
Eu428       O971   2.346       .  S
Eu428      O1570   2.356       .  S
Eu428      O2124   2.349       .  S
Eu429       O977   2.470       .  S
Eu429      O1547   2.451       .  S
Eu429       O964   2.345       .  S
Eu429      O1559   2.352       .  S
Eu429      O2136   2.357       .  S
Eu430       O988   2.470       .  S
Eu430       O431   2.352   1_554  S
Eu430      O1008   2.360   1_554  S
Eu430       O714   2.352       .  S
O431      Eu1555   2.354   1_456  S
O431      Eu1557   2.352   1_455  S
O432      Eu1272   2.348   1_455  S
O432      Eu2120   2.349   1_445  S
O432       Eu712   2.351   1_545  S
H441        O442   0.964       .  S
O442      Eu1273   2.355   1_455  S
O442      Eu1556   2.356   1_455  S
H443        O444   0.965       .  S
O444      Eu1554   2.353   1_456  S
O444      Eu2121   2.357   1_445  S
O444       Eu994   2.359   1_546  S
C445        C446   1.409       .  A
C445        C450   1.408       .  A
C445       Br452   1.928       .  S
C446       C1575   1.409       .  A
C447       C1574   1.409   1_455  A
C447        C448   1.405       .  A
C447       Br454   1.926       .  S
C448       C1577   1.407   1_455  A
C448       Br453   1.929       .  S
C449       C1576   1.407       .  A
C449        C450   1.409       .  A
C450       Br451   1.929       .  S
C455       C1584   1.409   1_455  A
C455        C460   1.408       .  A
C455       Br462   1.927       .  S
C456       C1583   1.409       .  A
C456        C457   1.409       .  A
C457        C458   1.407       .  A
C457       Br464   1.930       .  S
C458        C459   1.409       .  A
C458       Br463   1.929       .  S
C459       C1588   1.409       .  A
C460       C1587   1.409   1_455  A
C460       Br461   1.926       .  S
C465        C466   1.409       .  A
C465        C470   1.410       .  A
C465       Br472   1.926       .  S
C466       C1595   1.409       .  A
C467       C1594   1.409   1_455  A
C467        C468   1.406       .  A
C467       Br474   1.930       .  S
C468       C1597   1.410   1_455  A
C468       Br473   1.928       .  S
C469       C1596   1.410       .  A
C469        C470   1.409       .  A
C470       Br471   1.925       .  S
C475       C1604   1.410   1_455  A
C475        C480   1.404       .  A
C475       Br482   1.929       .  S
C476       C1603   1.410       .  A
C476        C477   1.411       .  A
C477        C478   1.410       .  A
C477       Br484   1.929       .  S
C478        C479   1.410       .  A
C478       Br483   1.930       .  S
C479       C1608   1.408       .  A
C480       C1607   1.408   1_455  A
C480       Br481   1.933       .  S
C485        C486   1.405       .  A
C485        C490   1.402       .  A
C485       Br492   1.931       .  S
C486       C1051   1.410       .  A
C487       C1050   1.410   1_545  A
C487        C488   1.409       .  A
C487       Br494   1.929       .  S
C488       C1053   1.410   1_545  A
C488       Br493   1.929       .  S
C489       C1052   1.410       .  A
C489        C490   1.410       .  A
C490       Br491   1.922       .  S
C495        C496   1.409       .  A
C495        C500   1.401       .  A
C495       Br502   1.924       .  S
C496       C1061   1.411       .  A
C497       C1060   1.411       .  A
C497        C498   1.409       .  A
C497       Br504   1.927   1_565  S
C498       C1063   1.411       .  A
C498       Br503   1.927   1_565  S
C499       C1062   1.411       .  A
C499        C500   1.408       .  A
C500       Br501   1.929       .  S
C505        C506   1.412       .  A
C505        C510   1.404       .  A
C505       Br512   1.935       .  S
C506        C507   1.413       .  A
C507        C508   1.410       .  A
C507       Br514   1.931       .  S
C508        C509   1.413       .  A
C508       Br513   1.931       .  S
C509        C510   1.412       .  A
C510       Br511   1.935       .  S
C515        C516   1.405       .  A
C515        C520   1.403       .  A
C515       Br522   1.928       .  S
C516       C1081   1.409       .  A
C517       C1080   1.409   1_545  A
C517        C518   1.408       .  A
C517       Br524   1.928       .  S
C518       C1083   1.409   1_545  A
C518       Br523   1.929       .  S
C519       C1082   1.409       .  A
C519        C520   1.409       .  A
C520       Br521   1.923       .  S
C525        C526   1.413   1_556  A
C525        C530   1.411       .  A
C525       Br532   1.928       .  S
C527        C528   1.404       .  A
C527       Br534   1.934       .  S
C528       Br533   1.931       .  S
C529        C530   1.411   1_554  A
C530       Br531   1.928       .  S
C535        C536   1.425       .  A
C535        C540   1.430   1_554  A
C535       Br542   1.933   1_554  S
C537        C538   1.385       .  A
C537       Br544   1.927       .  S
C538       Br543   1.933       .  S
C539        C540   1.434   1_554  A
C540       Br541   1.931       .  S
C545        C546   1.406       .  A
C545        C550   1.410       .  A
C545       Br552   1.925       .  S
C547        C548   1.412       .  A
C547       Br554   1.928       .  S
C548       Br553   1.927       .  S
C549        C550   1.417       .  A
C550       Br551   1.932       .  S
C555        C560   1.377       .  A
C555       Br562   1.936       .  S
C556        C557   1.434       .  A
C557        C558   1.432       .  A
C557       Br564   1.930       .  S
C558        C559   1.428       .  A
C558       Br563   1.930   1_556  S
C560       Br561   1.923       .  S
C565        C848   1.416   1_556  A
C565        C570   1.412       .  A
C565        C966   1.487   1_556  S
C566        C847   1.416       .  A
C566        C567   1.413       .  A
C566        H571   1.074       .  S
C567        C568   1.411       .  A
C567        C838   1.520       .  S
C568        C851   1.392       .  A
C568        H572   1.079       .  S
C569        C850   1.392       .  A
C569        C570   1.400       .  A
C569        C831   1.495       .  S
C570        H573   1.083       .  S
C574        C575   1.410       .  A
C574        C579   1.410       .  A
C574        C685   1.470       .  S
C575        C576   1.395       .  A
C575        H580   1.082       .  S
C576        C577   1.405       .  A
C576        C818   1.506       .  S
C577        C578   1.411       .  A
C577        H581   1.075       .  S
C578        C579   1.400       .  A
C578        C841   1.511       .  S
C579        H582   1.080       .  S
C583        C584   1.416       .  A
C583        C588   1.410       .  A
C583        C715   1.484       .  S
C584        C585   1.416       .  A
C584        H589   1.075       .  S
C585        C586   1.410       .  A
C585        C821   1.528       .  S
C586        C587   1.392       .  A
C586        H590   1.061       .  S
C587        C588   1.390       .  A
C587        C808   1.491       .  S
C588        H591   1.083       .  S
C592        C875   1.413       .  A
C592        C597   1.410       .  A
C592        C716   1.488       .  S
C593        C874   1.413       .  A
C593        C594   1.406       .  A
C593        H598   1.083       .  S
C594        C877   1.400       .  A
C594        C828   1.486       .  S
C595        C876   1.400       .  A
C595        C596   1.403       .  A
C595        H599   1.085       .  S
C596        C597   1.401       .  A
C596        C811   1.484       .  S
C597        H600   1.084       .  S
C601        C602   1.410       .  A
C601        C606   1.413       .  A
C601        C687   1.484       .  S
C602        C603   1.399       .  A
C602        H607   1.083       .  S
C603        C604   1.394       .  A
C603        C798   1.473       .  S
C604        C605   1.398       .  A
C604        H608   1.085       .  S
C605        C606   1.404       .  A
C605        C791   1.485   1_565  S
C606        H609   1.083   1_565  S
C610        C611   1.411       .  A
C610        C615   1.411       .  A
C610        C722   1.482       .  S
C611        C612   1.400       .  A
C611        H616   1.083       .  S
C612        C613   1.399       .  A
C612        C781   1.480       .  S
C613        C614   1.397       .  A
C613        H617   1.085       .  S
C614        C615   1.401       .  A
C614        C801   1.477       .  S
C615        H618   1.083       .  S
C619        C620   1.410       .  A
C619        C624   1.410       .  A
C619        C721   1.480       .  S
C620        C621   1.400       .  A
C620        H625   1.083       .  S
C621        C622   1.401       .  A
C621        C778   1.482       .  S
C622        C623   1.400       .  A
C622        H626   1.085       .  S
C623        C624   1.400       .  A
C623        C771   1.479       .  S
C624        H627   1.084       .  S
C628        C629   1.412       .  A
C628        C633   1.409       .  A
C628        C686   1.481       .  S
C629        C630   1.403       .  A
C629        H634   1.083       .  S
C630        C631   1.399       .  A
C630        C788   1.485   1_565  S
C631        C632   1.395       .  A
C631        H635   1.085       .  S
C632        C633   1.398       .  A
C632        C768   1.472       .  S
C633        H636   1.083       .  S
C637        C638   1.414       .  A
C637        C642   1.415       .  A
C637        C718   1.491       .  S
C638        C639   1.403       .  A
C638        H643   1.083       .  S
C639        C640   1.397       .  A
C639        C758   1.481       .  S
C640        C641   1.397       .  A
C640        H644   1.085       .  S
C641        C642   1.405       .  A
C641        C751   1.483       .  S
C642        H645   1.083       .  S
C646        C647   1.412       .  A
C646        C651   1.413       .  A
C646        C719   1.486       .  S
C647        C648   1.401       .  A
C647        H652   1.084       .  S
C648        C649   1.397       .  A
C648        C761   1.477       .  S
C649        C650   1.397       .  A
C649        H653   1.085       .  S
C650        C651   1.403       .  A
C650        C738   1.478       .  S
C651        H654   1.083       .  S
C655        C656   1.413       .  A
C655        C660   1.413       .  A
C655        C717   1.488       .  S
C656        C657   1.404       .  A
C656        H661   1.083       .  S
C657        C658   1.397       .  A
C657        C748   1.481       .  S
C658        C659   1.397       .  A
C658        H662   1.085       .  S
C659        C660   1.401       .  A
C659        C728   1.478       .  S
C660        H663   1.083       .  S
C664        C665   1.412       .  A
C664        C669   1.411       .  A
C664        C720   1.484       .  S
C665        C666   1.403       .  A
C665        H670   1.083       .  S
C666        C667   1.398       .  A
C666        C741   1.479       .  S
C667        C668   1.398       .  A
C667        H671   1.085       .  S
C668        C669   1.399       .  A
C668        C731   1.476       .  S
C669        H672   1.083       .  S
O673        C684   1.294       .  A
O673       Eu709   2.470       .  S
O674        C685   1.290       .  A
O674       Eu708   2.447       .  S
O675        C686   1.292       .  A
O675       Eu963   2.458       .  S
O676        C687   1.292       .  A
O676       Eu681   2.461       .  S
O677        C687   1.291       .  A
O677       Eu711   2.453       .  S
O678        C686   1.291       .  A
O678       Eu710   2.452       .  S
O679        C685   1.289       .  A
O680        C684   1.291       .  A
O680       Eu681   2.455       .  S
Eu681       O957   2.458       .  S
Eu681       O691   2.349       .  S
Eu681       O965   2.349       .  S
O682       Eu708   2.342       .  S
O683       Eu963   2.349       .  S
O683       Eu991   2.351       .  S
O683       Eu710   2.355       .  S
C684        C847   1.487       .  S
H688        O689   0.965       .  S
O689       Eu990   2.345       .  S
H690        O691   0.969       .  S
O691       Eu709   2.354       .  S
O691       Eu711   2.359       .  S
O692        C715   1.289       .  A
O692      Eu1836   2.435   1_455  S
O693        C716   1.293       .  A
O693      Eu1837   2.464   1_455  S
O694        C717   1.293       .  A
O695        C718   1.293       .  A
O696        C719   1.293       .  A
O696       Eu711   2.462       .  S
O697        C720   1.292       .  A
O697       Eu710   2.461       .  S
O698        C721   1.291       .  A
O698       Eu994   2.453       .  S
O699        C722   1.291       .  A
O699       Eu712   2.458       .  S
O700        C721   1.291       .  A
O700      Eu1838   2.450   1_455  S
O701        C722   1.291       .  A
O701      Eu1839   2.451   1_455  S
O702        C717   1.292       .  A
O702       Eu990   2.457       .  S
O703        C720   1.291       .  A
O703       Eu991   2.453       .  S
O704        C719   1.292       .  A
O704       Eu709   2.460       .  S
O705        C718   1.292       .  A
O705       Eu708   2.463       .  S
O706        C715   1.293       .  A
O707        C716   1.292       .  A
O707       Eu712   2.465       .  S
Eu708      O1820   2.435       .  S
Eu708       O984   2.457       .  S
Eu708       O971   2.345       .  S
Eu708      O1854   2.353       .  S
Eu708      O2124   2.348       .  S
Eu709      O1821   2.464       .  S
Eu709       O985   2.453       .  S
Eu709       O965   2.351       .  S
Eu709      O1841   2.352       .  S
Eu709      O2134   2.355       .  S
Eu710      O1828   2.450       .  S
Eu710      O1852   2.356       .  S
Eu710      O1278   2.349   1_565  S
Eu711      O1829   2.451       .  S
Eu711      O1841   2.352       .  S
Eu711      O1290   2.357   1_565  S
Eu712       O980   2.453       .  S
Eu712       O713   2.353       .  S
Eu712      O1006   2.357       .  S
O713      Eu1837   2.352   1_455  S
O713      Eu1839   2.352   1_455  S
O714      Eu2118   2.348   1_455  S
O714      Eu1274   2.349   1_455  S
H723        O724   0.964       .  S
O724      Eu2119   2.355   1_455  S
O724      Eu1838   2.356   1_455  S
O724       Eu994   2.357       .  S
H725        O726   0.965       .  S
O726      Eu1836   2.353   1_455  S
O726      Eu1275   2.357   1_455  S
C727        C728   1.409       .  A
C727        C732   1.408       .  A
C727       Br734   1.928       .  S
C728       C1857   1.409       .  A
C729       C1856   1.409   1_455  A
C729        C730   1.405       .  A
C729       Br736   1.926       .  S
C730       C1859   1.407   1_455  A
C730       Br735   1.929       .  S
C731       C1858   1.407       .  A
C731        C732   1.409       .  A
C732       Br733   1.929       .  S
C737       C1866   1.409   1_455  A
C737        C742   1.408       .  A
C737       Br744   1.927       .  S
C738       C1865   1.409       .  A
C738        C739   1.409       .  A
C739        C740   1.407       .  A
C739       Br746   1.930       .  S
C740        C741   1.409       .  A
C740       Br745   1.929       .  S
C741       C1870   1.409       .  A
C742       C1869   1.409   1_455  A
C742       Br743   1.926       .  S
C747        C748   1.409       .  A
C747        C752   1.410       .  A
C747       Br754   1.926       .  S
C748       C1877   1.409       .  A
C749       C1876   1.409   1_455  A
C749        C750   1.406       .  A
C749       Br756   1.930       .  S
C750       C1879   1.410   1_455  A
C750       Br755   1.928       .  S
C751       C1878   1.410       .  A
C751        C752   1.409       .  A
C752       Br753   1.925       .  S
C757       C1886   1.410   1_455  A
C757        C762   1.404       .  A
C757       Br764   1.929       .  S
C758       C1885   1.410       .  A
C758        C759   1.411       .  A
C759        C760   1.410       .  A
C759       Br766   1.929       .  S
C760        C761   1.410       .  A
C760       Br765   1.930       .  S
C761       C1890   1.408       .  A
C762       C1889   1.408   1_455  A
C762       Br763   1.933       .  S
C767        C768   1.405       .  A
C767        C772   1.402       .  A
C767       Br774   1.931       .  S
C769        C770   1.409       .  A
C769       Br776   1.929       .  S
C770       Br775   1.929       .  S
C771        C772   1.410       .  A
C772       Br773   1.922       .  S
C777        C778   1.409       .  A
C777        C782   1.401       .  A
C777       Br784   1.924       .  S
C779        C780   1.409       .  A
C779       Br786   1.927       .  S
C780       Br785   1.927       .  S
C781        C782   1.408       .  A
C782       Br783   1.929       .  S
C787        C788   1.412       .  A
C787        C792   1.404       .  A
C787       Br794   1.935       .  S
C788        C789   1.413   1_545  A
C789        C790   1.410       .  A
C789       Br796   1.931       .  S
C790        C791   1.413   1_565  A
C790       Br795   1.931       .  S
C791        C792   1.412       .  A
C792       Br793   1.935       .  S
C797        C798   1.405       .  A
C797        C802   1.403       .  A
C797       Br804   1.928       .  S
C799        C800   1.408       .  A
C799       Br806   1.928       .  S
C800       Br805   1.929       .  S
C801        C802   1.409       .  A
C802       Br803   1.923       .  S
C807        C808   1.413       .  A
C807        C812   1.411       .  A
C807       Br814   1.928       .  S
C808       C1091   1.415       .  A
C809       C1090   1.415       .  A
C809        C810   1.404       .  A
C809       Br816   1.934       .  S
C810       C1093   1.408       .  A
C810       Br815   1.931       .  S
C811       C1092   1.408       .  A
C811        C812   1.411       .  A
C812       Br813   1.928       .  S
C817        C818   1.425       .  A
C817        C822   1.430       .  A
C817       Br824   1.933       .  S
C818       C1101   1.403       .  A
C819       C1100   1.403       .  A
C819        C820   1.385       .  A
C819       Br826   1.927       .  S
C820       C1103   1.415       .  A
C820       Br825   1.933   1_554  S
C821       C1102   1.415       .  A
C821        C822   1.434       .  A
C822       Br823   1.931       .  S
C827        C828   1.406   1_554  A
C827        C832   1.410       .  A
C827       Br834   1.925       .  S
C828       C1111   1.407       .  A
C829       C1110   1.407       .  A
C829        C830   1.412       .  A
C829       Br836   1.928       .  S
C830       C1113   1.416       .  A
C830       Br835   1.927       .  S
C831       C1112   1.416       .  A
C831        C832   1.417   1_556  A
C832       Br833   1.932       .  S
C837       C1120   1.411       .  A
C837        C842   1.377       .  A
C837       Br844   1.936   1_556  S
C838       C1119   1.411       .  A
C838        C839   1.434       .  A
C839        C840   1.432       .  A
C839       Br846   1.930       .  S
C840        C841   1.428       .  A
C840       Br845   1.930       .  S
C841       C1124   1.397       .  A
C842       C1123   1.397       .  A
C842       Br843   1.923       .  S
C847        C852   1.412       .  A
C848        C849   1.413   1_554  A
C848        H853   1.074       .  S
C849        C850   1.411       .  A
C849       C1120   1.520       .  S
C850        H854   1.079       .  S
C851        C852   1.400       .  A
C851       C1113   1.495       .  S
C852        H855   1.083       .  S
C856        C857   1.410       .  A
C856        C861   1.410   1_554  A
C856        C967   1.470       .  S
C857        C858   1.395       .  A
C857        H862   1.082       .  S
C858        C859   1.405       .  A
C858       C1100   1.506       .  S
C859        C860   1.411   1_554  A
C859        H863   1.075       .  S
C860        C861   1.400       .  A
C860       C1123   1.511       .  S
C861        H864   1.080       .  S
C865        C866   1.416       .  A
C865        C870   1.410       .  A
C865        C997   1.484       .  S
C866        C867   1.416       .  A
C866        H871   1.075       .  S
C867        C868   1.410       .  A
C867       C1103   1.528       .  S
C868        C869   1.392       .  A
C868        H872   1.061       .  S
C869        C870   1.390       .  A
C869       C1090   1.491       .  S
C870        H873   1.083       .  S
C874        C879   1.410   1_556  A
C874        C998   1.488       .  S
C875        C876   1.406       .  A
C875        H880   1.083       .  S
C876       C1110   1.486       .  S
C877        C878   1.403   1_556  A
C877        H881   1.085       .  S
C878        C879   1.401       .  A
C878       C1093   1.484       .  S
C879        H882   1.084       .  S
C883        C884   1.410       .  A
C883        C888   1.413       .  A
C883        C969   1.484       .  S
C884        C885   1.399       .  A
C884        H889   1.083       .  S
C885        C886   1.394       .  A
C885       C1080   1.473       .  S
C886        C887   1.398       .  A
C886        H890   1.085       .  S
C887        C888   1.404       .  A
C887       C1073   1.485   1_565  S
C888        H891   1.083   1_565  S
C892        C893   1.411       .  A
C892        C897   1.411       .  A
C892       C1004   1.482       .  S
C893        C894   1.400       .  A
C893        H898   1.083       .  S
C894        C895   1.399       .  A
C894       C1063   1.480       .  S
C895        C896   1.397       .  A
C895        H899   1.085       .  S
C896        C897   1.401       .  A
C896       C1083   1.477       .  S
C897        H900   1.083       .  S
C901        C902   1.410       .  A
C901        C906   1.410       .  A
C901       C1003   1.480       .  S
C902        C903   1.400       .  A
C902        H907   1.083       .  S
C903        C904   1.401       .  A
C903       C1060   1.482       .  S
C904        C905   1.400       .  A
C904        H908   1.085       .  S
C905        C906   1.400       .  A
C905       C1053   1.479       .  S
C906        H909   1.084       .  S
C910        C911   1.412       .  A
C910        C915   1.409       .  A
C910        C968   1.481       .  S
C911        C912   1.403       .  A
C911        H916   1.083       .  S
C912        C913   1.399       .  A
C912       C1070   1.485   1_565  S
C913        C914   1.395       .  A
C913        H917   1.085       .  S
C914        C915   1.398       .  A
C914       C1050   1.472       .  S
C915        H918   1.083       .  S
C919        C920   1.414       .  A
C919        C924   1.415       .  A
C919       C1000   1.491       .  S
C920        C921   1.403       .  A
C920        H925   1.083       .  S
C921        C922   1.397       .  A
C921       C1040   1.481       .  S
C922        C923   1.397       .  A
C922        H926   1.085       .  S
C923        C924   1.405       .  A
C923       C1033   1.483       .  S
C924        H927   1.083       .  S
C928        C929   1.412       .  A
C928        C933   1.413       .  A
C928       C1001   1.486       .  S
C929        C930   1.401       .  A
C929        H934   1.084       .  S
C930        C931   1.397       .  A
C930       C1043   1.477       .  S
C931        C932   1.397       .  A
C931        H935   1.085       .  S
C932        C933   1.403       .  A
C932       C1020   1.478       .  S
C933        H936   1.083       .  S
C937        C938   1.413       .  A
C937        C942   1.413       .  A
C937        C999   1.488       .  S
C938        C939   1.404       .  A
C938        H943   1.083       .  S
C939        C940   1.397       .  A
C939       C1030   1.481       .  S
C940        C941   1.397       .  A
C940        H944   1.085       .  S
C941        C942   1.401       .  A
C941       C1010   1.478       .  S
C942        H945   1.083       .  S
C946        C947   1.412       .  A
C946        C951   1.411       .  A
C946       C1002   1.484       .  S
C947        C948   1.403       .  A
C947        H952   1.083       .  S
C948        C949   1.398       .  A
C948       C1023   1.479       .  S
C949        C950   1.398       .  A
C949        H953   1.085       .  S
C950        C951   1.399       .  A
C950       C1013   1.476       .  S
C951        H954   1.083       .  S
O955        C966   1.294       .  A
O955       Eu991   2.470       .  S
O956        C967   1.290   1_556  A
O956       Eu990   2.447   1_556  S
O957        C968   1.292       .  A
O958        C969   1.292       .  A
O958       Eu963   2.461   1_556  S
O959        C969   1.291       .  A
O959       Eu993   2.453       .  S
O960        C968   1.291       .  A
O960       Eu992   2.452       .  S
O961        C967   1.289       .  A
O962        C966   1.291       .  A
O962       Eu963   2.455       .  S
Eu963       O973   2.349   1_554  S
O964       Eu990   2.342   1_556  S
O965       Eu992   2.355       .  S
H970        O971   0.965       .  S
H972        O973   0.969       .  S
O973       Eu991   2.354   1_556  S
O973       Eu993   2.359       .  S
O974        C997   1.289       .  A
O974      Eu2118   2.435   1_455  S
O975        C998   1.293       .  A
O975      Eu2119   2.464   1_456  S
O976        C999   1.293       .  A
O977       C1000   1.293       .  A
O978       C1001   1.293       .  A
O978       Eu993   2.462       .  S
O979       C1002   1.292       .  A
O979       Eu992   2.461       .  S
O980       C1003   1.291       .  A
O981       C1004   1.291       .  A
O981       Eu994   2.458   1_556  S
O982       C1003   1.291       .  A
O982      Eu2120   2.450   1_455  S
O983       C1004   1.291       .  A
O983      Eu2121   2.451   1_455  S
O984        C999   1.292       .  A
O985       C1002   1.291       .  A
O986       C1001   1.292       .  A
O986       Eu991   2.460   1_556  S
O987       C1000   1.292       .  A
O987       Eu990   2.463   1_556  S
O988        C997   1.293       .  A
O989        C998   1.292       .  A
O989       Eu994   2.465   1_556  S
Eu990      O2102   2.435       .  S
Eu990      O2136   2.353   1_554  S
Eu990      O1842   2.348       .  S
Eu991      O2103   2.464   1_554  S
Eu991      O2123   2.352   1_554  S
Eu991      O1852   2.355       .  S
Eu992      O2110   2.450       .  S
Eu992      O2134   2.356       .  S
Eu992      O1560   2.349   1_565  S
Eu993      O2111   2.451       .  S
Eu993      O2123   2.352       .  S
Eu993      O1572   2.357   1_565  S
Eu994       O995   2.353   1_554  S
O995      Eu2119   2.352   1_456  S
O995      Eu2121   2.352   1_455  S
O996      Eu1836   2.348   1_455  S
O996      Eu1556   2.349   1_455  S
H1005      O1006   0.964       .  S
O1006     Eu1837   2.355   1_455  S
O1006     Eu2120   2.356   1_455  S
H1007      O1008   0.965       .  S
O1008     Eu2118   2.353   1_456  S
O1008     Eu1557   2.357   1_455  S
C1009      C1010   1.409       .  A
C1009      C1014   1.408       .  A
C1009     Br1016   1.928       .  S
C1010      C2139   1.409       .  A
C1011      C2138   1.409   1_455  A
C1011      C1012   1.405       .  A
C1011     Br1018   1.926       .  S
C1012      C2141   1.407   1_455  A
C1012     Br1017   1.929       .  S
C1013      C2140   1.407       .  A
C1013      C1014   1.409       .  A
C1014     Br1015   1.929       .  S
C1019      C2148   1.409   1_455  A
C1019      C1024   1.408       .  A
C1019     Br1026   1.927       .  S
C1020      C2147   1.409       .  A
C1020      C1021   1.409       .  A
C1021      C1022   1.407       .  A
C1021     Br1028   1.930       .  S
C1022      C1023   1.409       .  A
C1022     Br1027   1.929       .  S
C1023      C2152   1.409       .  A
C1024      C2151   1.409   1_455  A
C1024     Br1025   1.926       .  S
C1029      C1030   1.409       .  A
C1029      C1034   1.410       .  A
C1029     Br1036   1.926       .  S
C1030      C2159   1.409       .  A
C1031      C2158   1.409   1_455  A
C1031      C1032   1.406       .  A
C1031     Br1038   1.930       .  S
C1032      C2161   1.410   1_455  A
C1032     Br1037   1.928       .  S
C1033      C2160   1.410       .  A
C1033      C1034   1.409       .  A
C1034     Br1035   1.925       .  S
C1039      C2168   1.410   1_455  A
C1039      C1044   1.404       .  A
C1039     Br1046   1.929       .  S
C1040      C2167   1.410       .  A
C1040      C1041   1.411       .  A
C1041      C1042   1.410       .  A
C1041     Br1048   1.929       .  S
C1042      C1043   1.410       .  A
C1042     Br1047   1.930       .  S
C1043      C2172   1.408       .  A
C1044      C2171   1.408   1_455  A
C1044     Br1045   1.933       .  S
C1049      C1050   1.405       .  A
C1049      C1054   1.402       .  A
C1049     Br1056   1.931       .  S
C1051      C1052   1.409       .  A
C1051     Br1058   1.929       .  S
C1052     Br1057   1.929       .  S
C1053      C1054   1.410       .  A
C1054     Br1055   1.922       .  S
C1059      C1060   1.409       .  A
C1059      C1064   1.401       .  A
C1059     Br1066   1.924       .  S
C1061      C1062   1.409       .  A
C1061     Br1068   1.927       .  S
C1062     Br1067   1.927       .  S
C1063      C1064   1.408       .  A
C1064     Br1065   1.929       .  S
C1069      C1070   1.412       .  A
C1069      C1074   1.404       .  A
C1069     Br1076   1.935       .  S
C1070      C1071   1.413   1_545  A
C1071      C1072   1.410       .  A
C1071     Br1078   1.931       .  S
C1072      C1073   1.413   1_565  A
C1072     Br1077   1.931       .  S
C1073      C1074   1.412       .  A
C1074     Br1075   1.935       .  S
C1079      C1080   1.405       .  A
C1079      C1084   1.403       .  A
C1079     Br1086   1.928       .  S
C1081      C1082   1.408       .  A
C1081     Br1088   1.928       .  S
C1082     Br1087   1.929       .  S
C1083      C1084   1.409       .  A
C1084     Br1085   1.923       .  S
C1089      C1090   1.413   1_556  A
C1089      C1094   1.411       .  A
C1089     Br1096   1.928       .  S
C1091      C1092   1.404       .  A
C1091     Br1098   1.934       .  S
C1092     Br1097   1.931       .  S
C1093      C1094   1.411   1_554  A
C1094     Br1095   1.928       .  S
C1099      C1100   1.425       .  A
C1099      C1104   1.430   1_554  A
C1099     Br1106   1.933   1_554  S
C1101      C1102   1.385       .  A
C1101     Br1108   1.927       .  S
C1102     Br1107   1.933       .  S
C1103      C1104   1.434   1_554  A
C1104     Br1105   1.931       .  S
C1109      C1110   1.406       .  A
C1109      C1114   1.410       .  A
C1109     Br1116   1.925       .  S
C1111      C1112   1.412       .  A
C1111     Br1118   1.928       .  S
C1112     Br1117   1.927       .  S
C1113      C1114   1.417       .  A
C1114     Br1115   1.932       .  S
C1119      C1124   1.377       .  A
C1119     Br1126   1.936       .  S
C1120      C1121   1.434       .  A
C1121      C1122   1.432       .  A
C1121     Br1128   1.930       .  S
C1122      C1123   1.428       .  A
C1122     Br1127   1.930   1_556  S
C1124     Br1125   1.923       .  S
C1129      C1412   1.416   1_556  A
C1129      C1134   1.412       .  A
C1129      C1530   1.487   1_556  S
C1130      C1411   1.416       .  A
C1130      C1131   1.413       .  A
C1130      H1135   1.074       .  S
C1131      C1132   1.411       .  A
C1131      C1402   1.520       .  S
C1132      C1415   1.392       .  A
C1132      H1136   1.079       .  S
C1133      C1414   1.392       .  A
C1133      C1134   1.400       .  A
C1133      C1395   1.495       .  S
C1134      H1137   1.083       .  S
C1138      C1139   1.410       .  A
C1138      C1143   1.410       .  A
C1138      C1249   1.470       .  S
C1139      C1140   1.395       .  A
C1139      H1144   1.082       .  S
C1140      C1141   1.405       .  A
C1140      C1382   1.506       .  S
C1141      C1142   1.411       .  A
C1141      H1145   1.075       .  S
C1142      C1143   1.400       .  A
C1142      C1405   1.511       .  S
C1143      H1146   1.080       .  S
C1147      C1148   1.416       .  A
C1147      C1152   1.410       .  A
C1147      C1279   1.484       .  S
C1148      C1149   1.416       .  A
C1148      H1153   1.075       .  S
C1149      C1150   1.410       .  A
C1149      C1385   1.528       .  S
C1150      C1151   1.392       .  A
C1150      H1154   1.061       .  S
C1151      C1152   1.390       .  A
C1151      C1372   1.491       .  S
C1152      H1155   1.083       .  S
C1156      C1439   1.413       .  A
C1156      C1161   1.410       .  A
C1156      C1280   1.488       .  S
C1157      C1438   1.413       .  A
C1157      C1158   1.406       .  A
C1157      H1162   1.083       .  S
C1158      C1441   1.400       .  A
C1158      C1392   1.486       .  S
C1159      C1440   1.400       .  A
C1159      C1160   1.403       .  A
C1159      H1163   1.085       .  S
C1160      C1161   1.401       .  A
C1160      C1375   1.484       .  S
C1161      H1164   1.084       .  S
C1165      C1166   1.410       .  A
C1165      C1170   1.413       .  A
C1165      C1251   1.484       .  S
C1166      C1167   1.399       .  A
C1166      H1171   1.083       .  S
C1167      C1168   1.394       .  A
C1167      C1362   1.473       .  S
C1168      C1169   1.398       .  A
C1168      H1172   1.085       .  S
C1169      C1170   1.404       .  A
C1169      C1355   1.485       .  S
C1170      H1173   1.083       .  S
C1174      C1175   1.411       .  A
C1174      C1179   1.411       .  A
C1174      C1286   1.482       .  S
C1175      C1176   1.400       .  A
C1175      H1180   1.083       .  S
C1176      C1177   1.399       .  A
C1176      C1345   1.480       .  S
C1177      C1178   1.397       .  A
C1177      H1181   1.085       .  S
C1178      C1179   1.401       .  A
C1178      C1365   1.477       .  S
C1179      H1182   1.083       .  S
C1183      C1184   1.410       .  A
C1183      C1188   1.410       .  A
C1183      C1285   1.480       .  S
C1184      C1185   1.400       .  A
C1184      H1189   1.083       .  S
C1185      C1186   1.401       .  A
C1185      C1342   1.482       .  S
C1186      C1187   1.400       .  A
C1186      H1190   1.085       .  S
C1187      C1188   1.400       .  A
C1187      C1335   1.479       .  S
C1188      H1191   1.084       .  S
C1192      C1193   1.412       .  A
C1192      C1197   1.409       .  A
C1192      C1250   1.481       .  S
C1193      C1194   1.403       .  A
C1193      H1198   1.083       .  S
C1194      C1195   1.399       .  A
C1194      C1352   1.485       .  S
C1195      C1196   1.395       .  A
C1195      H1199   1.085       .  S
C1196      C1197   1.398       .  A
C1196      C1332   1.472       .  S
C1197      H1200   1.083       .  S
C1201      C1202   1.414       .  A
C1201      C1206   1.415       .  A
C1201      C1282   1.491       .  S
C1202      C1203   1.403       .  A
C1202      H1207   1.083       .  S
C1203      C1204   1.397       .  A
C1203      C1322   1.481       .  S
C1204      C1205   1.397       .  A
C1204      H1208   1.085       .  S
C1205      C1206   1.405       .  A
C1205      C1315   1.483       .  S
C1206      H1209   1.083       .  S
C1210      C1211   1.412       .  A
C1210      C1215   1.413       .  A
C1210      C1283   1.486       .  S
C1211      C1212   1.401       .  A
C1211      H1216   1.084       .  S
C1212      C1213   1.397       .  A
C1212      C1325   1.477       .  S
C1213      C1214   1.397       .  A
C1213      H1217   1.085       .  S
C1214      C1215   1.403       .  A
C1214      C1302   1.478       .  S
C1215      H1218   1.083       .  S
C1219      C1220   1.413       .  A
C1219      C1224   1.413       .  A
C1219      C1281   1.488       .  S
C1220      C1221   1.404       .  A
C1220      H1225   1.083       .  S
C1221      C1222   1.397       .  A
C1221      C1312   1.481       .  S
C1222      C1223   1.397       .  A
C1222      H1226   1.085       .  S
C1223      C1224   1.401       .  A
C1223      C1292   1.478       .  S
C1224      H1227   1.083       .  S
C1228      C1229   1.412       .  A
C1228      C1233   1.411       .  A
C1228      C1284   1.484       .  S
C1229      C1230   1.403       .  A
C1229      H1234   1.083       .  S
C1230      C1231   1.398       .  A
C1230      C1305   1.479       .  S
C1231      C1232   1.398       .  A
C1231      H1235   1.085       .  S
C1232      C1233   1.399       .  A
C1232      C1295   1.476       .  S
C1233      H1236   1.083       .  S
O1237      C1248   1.294       .  A
O1237     Eu1273   2.470       .  S
O1238      C1249   1.290       .  A
O1238     Eu1272   2.447       .  S
O1239      C1250   1.292       .  A
O1239     Eu1527   2.458       .  S
O1240      C1251   1.292       .  A
O1240     Eu1245   2.461       .  S
O1241      C1251   1.291       .  A
O1241     Eu1275   2.453       .  S
O1242      C1250   1.291       .  A
O1242     Eu1274   2.452       .  S
O1243      C1249   1.289       .  A
O1243     Eu1809   2.439   1_545  S
O1244      C1248   1.291       .  A
O1244     Eu1245   2.455       .  S
Eu1245     O1521   2.458       .  S
Eu1245     O1807   2.439       .  S
Eu1245     O1255   2.349       .  S
Eu1245     O1529   2.349       .  S
Eu1245     O1810   2.350       .  S
Eu1245     O2099   2.348       .  S
O1246     Eu1809   2.350   1_545  S
O1246     Eu1839   2.345   1_545  S
O1246     Eu1272   2.342       .  S
O1247     Eu1527   2.349       .  S
O1247     Eu1555   2.352       .  S
O1247     Eu1274   2.355       .  S
C1248      C1411   1.487       .  S
H1252      O1253   0.965       .  S
O1253     Eu2091   2.348   1_545  S
O1253     Eu1838   2.346   1_545  S
O1253     Eu1554   2.345       .  S
H1254      O1255   0.969       .  S
O1255     Eu1273   2.354       .  S
O1255     Eu1275   2.359       .  S
O1256      C1279   1.289       .  A
O1257      C1280   1.293       .  A
O1258      C1281   1.293       .  A
O1258     Eu1838   2.469   1_545  S
O1259      C1282   1.293       .  A
O1259     Eu1839   2.470   1_545  S
O1260      C1283   1.293       .  A
O1260     Eu1275   2.462       .  S
O1261      C1284   1.292       .  A
O1261     Eu1274   2.461       .  S
O1262      C1285   1.291       .  A
O1262     Eu1558   2.453       .  S
O1263      C1286   1.291       .  A
O1263     Eu1276   2.458       .  S
O1264      C1285   1.291       .  A
O1265      C1286   1.291       .  A
O1266      C1281   1.292       .  A
O1266     Eu1554   2.457       .  S
O1267      C1284   1.291       .  A
O1267     Eu1555   2.453       .  S
O1268      C1283   1.292       .  A
O1268     Eu1273   2.460       .  S
O1269      C1282   1.292       .  A
O1269     Eu1272   2.463       .  S
O1270      C1279   1.293       .  A
O1270     Eu1840   2.469   1_545  S
O1271      C1280   1.292       .  A
O1271     Eu1276   2.465       .  S
Eu1272     O1548   2.457       .  S
Eu1272     O1535   2.345       .  S
Eu1273     O1549   2.453       .  S
Eu1273     O1529   2.351       .  S
Eu1274     O1822   2.469       .  S
Eu1274     O1817   2.346       .  S
Eu1275     O1823   2.470       .  S
Eu1275     O1810   2.345       .  S
Eu1276     O1544   2.453       .  S
Eu1276     O1834   2.469       .  S
Eu1276     O1277   2.353       .  S
Eu1276     O1570   2.357       .  S
Eu1276     O1854   2.359       .  S
Eu1276     O2124   2.351       .  S
O1278     Eu2122   2.351   1_545  S
H1287      O1288   0.964       .  S
O1288     Eu1558   2.357       .  S
H1289      O1290   0.965       .  S
O1290     Eu1840   2.359   1_545  S
C1291      C1292   1.409       .  A
C1291      C1296   1.408       .  A
C1291     Br1298   1.928       .  S
C1293      C1294   1.405       .  A
C1293     Br1300   1.926       .  S
C1294     Br1299   1.929       .  S
C1295      C1296   1.409       .  A
C1296     Br1297   1.929       .  S
C1301      C1306   1.408       .  A
C1301     Br1308   1.927       .  S
C1302      C1303   1.409       .  A
C1303      C1304   1.407       .  A
C1303     Br1310   1.930       .  S
C1304      C1305   1.409       .  A
C1304     Br1309   1.929       .  S
C1306     Br1307   1.926       .  S
C1311      C1312   1.409       .  A
C1311      C1316   1.410       .  A
C1311     Br1318   1.926       .  S
C1313      C1314   1.406       .  A
C1313     Br1320   1.930       .  S
C1314     Br1319   1.928       .  S
C1315      C1316   1.409       .  A
C1316     Br1317   1.925       .  S
C1321      C1326   1.404       .  A
C1321     Br1328   1.929       .  S
C1322      C1323   1.411       .  A
C1323      C1324   1.410       .  A
C1323     Br1330   1.929       .  S
C1324      C1325   1.410       .  A
C1324     Br1329   1.930       .  S
C1326     Br1327   1.933       .  S
C1331      C1332   1.405       .  A
C1331      C1336   1.402       .  A
C1331     Br1338   1.931       .  S
C1332      C1897   1.410       .  A
C1333      C1896   1.410   1_545  A
C1333      C1334   1.409       .  A
C1333     Br1340   1.929       .  S
C1334      C1899   1.410   1_545  A
C1334     Br1339   1.929       .  S
C1335      C1898   1.410       .  A
C1335      C1336   1.410       .  A
C1336     Br1337   1.922       .  S
C1341      C1342   1.409       .  A
C1341      C1346   1.401       .  A
C1341     Br1348   1.924       .  S
C1342      C1907   1.411       .  A
C1343      C1906   1.411       .  A
C1343      C1344   1.409       .  A
C1343     Br1350   1.927   1_565  S
C1344      C1909   1.411       .  A
C1344     Br1349   1.927   1_565  S
C1345      C1908   1.411       .  A
C1345      C1346   1.408       .  A
C1346     Br1347   1.929       .  S
C1351      C1352   1.412       .  A
C1351      C1356   1.404       .  A
C1351     Br1358   1.935       .  S
C1352      C1353   1.413       .  A
C1353      C1354   1.410       .  A
C1353     Br1360   1.931       .  S
C1354      C1355   1.413       .  A
C1354     Br1359   1.931       .  S
C1355      C1356   1.412       .  A
C1356     Br1357   1.935       .  S
C1361      C1362   1.405       .  A
C1361      C1366   1.403       .  A
C1361     Br1368   1.928       .  S
C1362      C1927   1.409       .  A
C1363      C1926   1.409   1_545  A
C1363      C1364   1.408       .  A
C1363     Br1370   1.928       .  S
C1364      C1929   1.409   1_545  A
C1364     Br1369   1.929       .  S
C1365      C1928   1.409       .  A
C1365      C1366   1.409       .  A
C1366     Br1367   1.923       .  S
C1371      C1372   1.413       .  A
C1371      C1376   1.411       .  A
C1371     Br1378   1.928       .  S
C1372      C1655   1.415       .  A
C1373      C1654   1.415       .  A
C1373      C1374   1.404       .  A
C1373     Br1380   1.934       .  S
C1374      C1657   1.408       .  A
C1374     Br1379   1.931       .  S
C1375      C1656   1.408       .  A
C1375      C1376   1.411       .  A
C1376     Br1377   1.928       .  S
C1381      C1382   1.425       .  A
C1381      C1386   1.430       .  A
C1381     Br1388   1.933       .  S
C1382      C1665   1.403       .  A
C1383      C1664   1.403       .  A
C1383      C1384   1.385       .  A
C1383     Br1390   1.927       .  S
C1384      C1667   1.415       .  A
C1384     Br1389   1.933   1_554  S
C1385      C1666   1.415       .  A
C1385      C1386   1.434       .  A
C1386     Br1387   1.931       .  S
C1391      C1392   1.406   1_554  A
C1391      C1396   1.410       .  A
C1391     Br1398   1.925       .  S
C1392      C1675   1.407       .  A
C1393      C1674   1.407       .  A
C1393      C1394   1.412       .  A
C1393     Br1400   1.928       .  S
C1394      C1677   1.416       .  A
C1394     Br1399   1.927       .  S
C1395      C1676   1.416       .  A
C1395      C1396   1.417   1_556  A
C1396     Br1397   1.932       .  S
C1401      C1684   1.411       .  A
C1401      C1406   1.377       .  A
C1401     Br1408   1.936   1_556  S
C1402      C1683   1.411       .  A
C1402      C1403   1.434       .  A
C1403      C1404   1.432       .  A
C1403     Br1410   1.930       .  S
C1404      C1405   1.428       .  A
C1404     Br1409   1.930       .  S
C1405      C1688   1.397       .  A
C1406      C1687   1.397       .  A
C1406     Br1407   1.923       .  S
C1411      C1416   1.412       .  A
C1412      C1413   1.413   1_554  A
C1412      H1417   1.074       .  S
C1413      C1414   1.411       .  A
C1413      C1684   1.520       .  S
C1414      H1418   1.079       .  S
C1415      C1416   1.400       .  A
C1415      C1677   1.495       .  S
C1416      H1419   1.083       .  S
C1420      C1421   1.410       .  A
C1420      C1425   1.410   1_554  A
C1420      C1531   1.470       .  S
C1421      C1422   1.395       .  A
C1421      H1426   1.082       .  S
C1422      C1423   1.405       .  A
C1422      C1664   1.506       .  S
C1423      C1424   1.411   1_554  A
C1423      H1427   1.075       .  S
C1424      C1425   1.400       .  A
C1424      C1687   1.511       .  S
C1425      H1428   1.080       .  S
C1429      C1430   1.416       .  A
C1429      C1434   1.410       .  A
C1429      C1561   1.484       .  S
C1430      C1431   1.416       .  A
C1430      H1435   1.075       .  S
C1431      C1432   1.410       .  A
C1431      C1667   1.528       .  S
C1432      C1433   1.392       .  A
C1432      H1436   1.061       .  S
C1433      C1434   1.390       .  A
C1433      C1654   1.491       .  S
C1434      H1437   1.083       .  S
C1438      C1443   1.410   1_556  A
C1438      C1562   1.488       .  S
C1439      C1440   1.406       .  A
C1439      H1444   1.083       .  S
C1440      C1674   1.486       .  S
C1441      C1442   1.403   1_556  A
C1441      H1445   1.085       .  S
C1442      C1443   1.401       .  A
C1442      C1657   1.484       .  S
C1443      H1446   1.084       .  S
C1447      C1448   1.410       .  A
C1447      C1452   1.413       .  A
C1447      C1533   1.484       .  S
C1448      C1449   1.399       .  A
C1448      H1453   1.083       .  S
C1449      C1450   1.394       .  A
C1449      C1644   1.473       .  S
C1450      C1451   1.398       .  A
C1450      H1454   1.085       .  S
C1451      C1452   1.404       .  A
C1451      C1637   1.485       .  S
C1452      H1455   1.083       .  S
C1456      C1457   1.411       .  A
C1456      C1461   1.411       .  A
C1456      C1568   1.482       .  S
C1457      C1458   1.400       .  A
C1457      H1462   1.083       .  S
C1458      C1459   1.399       .  A
C1458      C1627   1.480       .  S
C1459      C1460   1.397       .  A
C1459      H1463   1.085       .  S
C1460      C1461   1.401       .  A
C1460      C1647   1.477       .  S
C1461      H1464   1.083       .  S
C1465      C1466   1.410       .  A
C1465      C1470   1.410       .  A
C1465      C1567   1.480       .  S
C1466      C1467   1.400       .  A
C1466      H1471   1.083       .  S
C1467      C1468   1.401       .  A
C1467      C1624   1.482       .  S
C1468      C1469   1.400       .  A
C1468      H1472   1.085       .  S
C1469      C1470   1.400       .  A
C1469      C1617   1.479       .  S
C1470      H1473   1.084       .  S
C1474      C1475   1.412       .  A
C1474      C1479   1.409       .  A
C1474      C1532   1.481       .  S
C1475      C1476   1.403       .  A
C1475      H1480   1.083       .  S
C1476      C1477   1.399       .  A
C1476      C1634   1.485       .  S
C1477      C1478   1.395       .  A
C1477      H1481   1.085       .  S
C1478      C1479   1.398       .  A
C1478      C1614   1.472       .  S
C1479      H1482   1.083       .  S
C1483      C1484   1.414       .  A
C1483      C1488   1.415       .  A
C1483      C1564   1.491       .  S
C1484      C1485   1.403       .  A
C1484      H1489   1.083       .  S
C1485      C1486   1.397       .  A
C1485      C1604   1.481       .  S
C1486      C1487   1.397       .  A
C1486      H1490   1.085       .  S
C1487      C1488   1.405       .  A
C1487      C1597   1.483       .  S
C1488      H1491   1.083       .  S
C1492      C1493   1.412       .  A
C1492      C1497   1.413       .  A
C1492      C1565   1.486       .  S
C1493      C1494   1.401       .  A
C1493      H1498   1.084       .  S
C1494      C1495   1.397       .  A
C1494      C1607   1.477       .  S
C1495      C1496   1.397       .  A
C1495      H1499   1.085       .  S
C1496      C1497   1.403       .  A
C1496      C1584   1.478       .  S
C1497      H1500   1.083       .  S
C1501      C1502   1.413       .  A
C1501      C1506   1.413       .  A
C1501      C1563   1.488       .  S
C1502      C1503   1.404       .  A
C1502      H1507   1.083       .  S
C1503      C1504   1.397       .  A
C1503      C1594   1.481       .  S
C1504      C1505   1.397       .  A
C1504      H1508   1.085       .  S
C1505      C1506   1.401       .  A
C1505      C1574   1.478       .  S
C1506      H1509   1.083       .  S
C1510      C1511   1.412       .  A
C1510      C1515   1.411       .  A
C1510      C1566   1.484       .  S
C1511      C1512   1.403       .  A
C1511      H1516   1.083       .  S
C1512      C1513   1.398       .  A
C1512      C1587   1.479       .  S
C1513      C1514   1.398       .  A
C1513      H1517   1.085       .  S
C1514      C1515   1.399       .  A
C1514      C1577   1.476       .  S
C1515      H1518   1.083       .  S
O1519      C1530   1.293       .  A
O1519     Eu1555   2.469       .  S
O1520      C1531   1.290   1_556  A
O1520     Eu1554   2.447   1_556  S
O1521      C1532   1.292       .  A
O1522      C1533   1.292       .  A
O1522     Eu1527   2.461   1_556  S
O1523      C1533   1.291       .  A
O1523     Eu1557   2.453       .  S
O1524      C1532   1.291       .  A
O1524     Eu1556   2.452       .  S
O1525      C1531   1.289       .  A
O1525     Eu2091   2.439   1_545  S
O1526      C1530   1.291       .  A
O1526     Eu1527   2.455       .  S
Eu1527     O2089   2.439       .  S
Eu1527     O1537   2.349   1_554  S
Eu1527     O2092   2.350   1_554  S
Eu1527     O1817   2.348       .  S
O1528     Eu2091   2.350   1_546  S
O1528     Eu2121   2.345   1_545  S
O1528     Eu1554   2.342   1_556  S
O1529     Eu1556   2.355       .  S
H1534      O1535   0.965       .  S
O1535     Eu1809   2.348   1_545  S
O1535     Eu2120   2.346   1_545  S
H1536      O1537   0.969       .  S
O1537     Eu1555   2.355   1_556  S
O1537     Eu1557   2.359       .  S
O1538      C1561   1.289       .  A
O1539      C1562   1.293       .  A
O1540      C1563   1.293       .  A
O1540     Eu2120   2.469   1_545  S
O1541      C1564   1.293       .  A
O1541     Eu2121   2.470   1_545  S
O1542      C1565   1.292       .  A
O1542     Eu1557   2.462       .  S
O1543      C1566   1.292       .  A
O1543     Eu1556   2.461       .  S
O1544      C1567   1.291       .  A
O1545      C1568   1.291       .  A
O1545     Eu1558   2.458   1_556  S
O1546      C1567   1.291       .  A
O1547      C1568   1.291       .  A
O1548      C1563   1.292       .  A
O1549      C1566   1.291       .  A
O1550      C1565   1.292       .  A
O1550     Eu1555   2.459   1_556  S
O1551      C1564   1.292       .  A
O1551     Eu1554   2.463   1_556  S
O1552      C1561   1.293       .  A
O1552     Eu2122   2.469   1_545  S
O1553      C1562   1.292       .  A
O1553     Eu1558   2.465   1_556  S
Eu1556     O2104   2.469       .  S
Eu1556     O2099   2.346       .  S
Eu1557     O2105   2.470       .  S
Eu1557     O2092   2.345       .  S
Eu1558     O2116   2.469       .  S
Eu1558     O1559   2.353   1_554  S
Eu1558     O2136   2.359   1_554  S
Eu1558     O1842   2.351       .  S
O1560     Eu1840   2.351   1_545  S
H1569      O1570   0.964       .  S
H1571      O1572   0.965       .  S
O1572     Eu2122   2.359   1_546  S
C1573      C1574   1.409       .  A
C1573      C1578   1.408       .  A
C1573     Br1580   1.928       .  S
C1575      C1576   1.405       .  A
C1575     Br1582   1.926       .  S
C1576     Br1581   1.929       .  S
C1577      C1578   1.409       .  A
C1578     Br1579   1.929       .  S
C1583      C1588   1.408       .  A
C1583     Br1590   1.927       .  S
C1584      C1585   1.409       .  A
C1585      C1586   1.407       .  A
C1585     Br1592   1.930       .  S
C1586      C1587   1.409       .  A
C1586     Br1591   1.929       .  S
C1588     Br1589   1.926       .  S
C1593      C1594   1.409       .  A
C1593      C1598   1.410       .  A
C1593     Br1600   1.926       .  S
C1595      C1596   1.406       .  A
C1595     Br1602   1.930       .  S
C1596     Br1601   1.928       .  S
C1597      C1598   1.409       .  A
C1598     Br1599   1.925       .  S
C1603      C1608   1.404       .  A
C1603     Br1610   1.929       .  S
C1604      C1605   1.411       .  A
C1605      C1606   1.410       .  A
C1605     Br1612   1.929       .  S
C1606      C1607   1.410       .  A
C1606     Br1611   1.930       .  S
C1608     Br1609   1.933       .  S
C1613      C1614   1.405       .  A
C1613      C1618   1.402       .  A
C1613     Br1620   1.931       .  S
C1614      C2179   1.410       .  A
C1615      C2178   1.410   1_545  A
C1615      C1616   1.409       .  A
C1615     Br1622   1.929       .  S
C1616      C2181   1.410   1_545  A
C1616     Br1621   1.929       .  S
C1617      C2180   1.410       .  A
C1617      C1618   1.410       .  A
C1618     Br1619   1.922       .  S
C1623      C1624   1.409       .  A
C1623      C1628   1.401       .  A
C1623     Br1630   1.924       .  S
C1624      C2189   1.411       .  A
C1625      C2188   1.411       .  A
C1625      C1626   1.409       .  A
C1625     Br1632   1.927   1_565  S
C1626      C2191   1.411       .  A
C1626     Br1631   1.927   1_565  S
C1627      C2190   1.411       .  A
C1627      C1628   1.408       .  A
C1628     Br1629   1.929       .  S
C1633      C1634   1.412       .  A
C1633      C1638   1.404       .  A
C1633     Br1640   1.935       .  S
C1634      C1635   1.413       .  A
C1635      C1636   1.410       .  A
C1635     Br1642   1.931       .  S
C1636      C1637   1.413       .  A
C1636     Br1641   1.931       .  S
C1637      C1638   1.412       .  A
C1638     Br1639   1.935       .  S
C1643      C1644   1.405       .  A
C1643      C1648   1.403       .  A
C1643     Br1650   1.928       .  S
C1644      C2209   1.409       .  A
C1645      C2208   1.409   1_545  A
C1645      C1646   1.408       .  A
C1645     Br1652   1.928       .  S
C1646      C2211   1.409   1_545  A
C1646     Br1651   1.929       .  S
C1647      C2210   1.409       .  A
C1647      C1648   1.409       .  A
C1648     Br1649   1.923       .  S
C1653      C1654   1.413   1_556  A
C1653      C1658   1.411       .  A
C1653     Br1660   1.928       .  S
C1655      C1656   1.404       .  A
C1655     Br1662   1.934       .  S
C1656     Br1661   1.931       .  S
C1657      C1658   1.411   1_554  A
C1658     Br1659   1.928       .  S
C1663      C1664   1.425       .  A
C1663      C1668   1.430   1_554  A
C1663     Br1670   1.933   1_554  S
C1665      C1666   1.385       .  A
C1665     Br1672   1.927       .  S
C1666     Br1671   1.933       .  S
C1667      C1668   1.434   1_554  A
C1668     Br1669   1.931       .  S
C1673      C1674   1.406       .  A
C1673      C1678   1.410       .  A
C1673     Br1680   1.925       .  S
C1675      C1676   1.412       .  A
C1675     Br1682   1.928       .  S
C1676     Br1681   1.927       .  S
C1677      C1678   1.417       .  A
C1678     Br1679   1.932       .  S
C1683      C1688   1.377       .  A
C1683     Br1690   1.936       .  S
C1684      C1685   1.434       .  A
C1685      C1686   1.432       .  A
C1685     Br1692   1.930       .  S
C1686      C1687   1.428       .  A
C1686     Br1691   1.930   1_556  S
C1688     Br1689   1.923       .  S
C1693      C1976   1.416   1_556  A
C1693      C1698   1.412       .  A
C1693      C2094   1.487   1_556  S
C1694      C1975   1.416       .  A
C1694      C1695   1.413       .  A
C1694      H1699   1.074       .  S
C1695      C1696   1.411       .  A
C1695      C1966   1.520       .  S
C1696      C1979   1.392       .  A
C1696      H1700   1.079       .  S
C1697      C1978   1.392       .  A
C1697      C1698   1.400       .  A
C1697      C1959   1.495       .  S
C1698      H1701   1.083       .  S
C1702      C1703   1.410       .  A
C1702      C1707   1.410       .  A
C1702      C1813   1.470       .  S
C1703      C1704   1.395       .  A
C1703      H1708   1.082       .  S
C1704      C1705   1.405       .  A
C1704      C1946   1.506       .  S
C1705      C1706   1.411       .  A
C1705      H1709   1.075       .  S
C1706      C1707   1.400       .  A
C1706      C1969   1.511       .  S
C1707      H1710   1.080       .  S
C1711      C1712   1.416       .  A
C1711      C1716   1.410       .  A
C1711      C1843   1.484       .  S
C1712      C1713   1.416       .  A
C1712      H1717   1.075       .  S
C1713      C1714   1.410       .  A
C1713      C1949   1.528       .  S
C1714      C1715   1.392       .  A
C1714      H1718   1.061       .  S
C1715      C1716   1.390       .  A
C1715      C1936   1.491       .  S
C1716      H1719   1.083       .  S
C1720      C2003   1.413       .  A
C1720      C1725   1.410       .  A
C1720      C1844   1.488       .  S
C1721      C2002   1.413       .  A
C1721      C1722   1.406       .  A
C1721      H1726   1.083       .  S
C1722      C2005   1.400       .  A
C1722      C1956   1.486       .  S
C1723      C2004   1.400       .  A
C1723      C1724   1.403       .  A
C1723      H1727   1.085       .  S
C1724      C1725   1.401       .  A
C1724      C1939   1.484       .  S
C1725      H1728   1.084       .  S
C1729      C1730   1.410       .  A
C1729      C1734   1.413       .  A
C1729      C1815   1.484       .  S
C1730      C1731   1.399       .  A
C1730      H1735   1.083       .  S
C1731      C1732   1.394       .  A
C1731      C1926   1.473       .  S
C1732      C1733   1.398       .  A
C1732      H1736   1.085       .  S
C1733      C1734   1.404       .  A
C1733      C1919   1.485   1_565  S
C1734      H1737   1.083   1_565  S
C1738      C1739   1.411       .  A
C1738      C1743   1.411       .  A
C1738      C1850   1.482       .  S
C1739      C1740   1.400       .  A
C1739      H1744   1.083       .  S
C1740      C1741   1.399       .  A
C1740      C1909   1.480       .  S
C1741      C1742   1.397       .  A
C1741      H1745   1.085       .  S
C1742      C1743   1.401       .  A
C1742      C1929   1.477       .  S
C1743      H1746   1.083       .  S
C1747      C1748   1.410       .  A
C1747      C1752   1.410       .  A
C1747      C1849   1.480       .  S
C1748      C1749   1.400       .  A
C1748      H1753   1.083       .  S
C1749      C1750   1.401       .  A
C1749      C1906   1.482       .  S
C1750      C1751   1.400       .  A
C1750      H1754   1.085       .  S
C1751      C1752   1.400       .  A
C1751      C1899   1.479       .  S
C1752      H1755   1.084       .  S
C1756      C1757   1.412       .  A
C1756      C1761   1.409       .  A
C1756      C1814   1.481       .  S
C1757      C1758   1.403       .  A
C1757      H1762   1.083       .  S
C1758      C1759   1.399       .  A
C1758      C1916   1.485   1_565  S
C1759      C1760   1.395       .  A
C1759      H1763   1.085       .  S
C1760      C1761   1.398       .  A
C1760      C1896   1.472       .  S
C1761      H1764   1.083       .  S
C1765      C1766   1.414       .  A
C1765      C1770   1.415       .  A
C1765      C1846   1.491       .  S
C1766      C1767   1.403       .  A
C1766      H1771   1.083       .  S
C1767      C1768   1.397       .  A
C1767      C1886   1.481       .  S
C1768      C1769   1.397       .  A
C1768      H1772   1.085       .  S
C1769      C1770   1.405       .  A
C1769      C1879   1.483       .  S
C1770      H1773   1.083       .  S
C1774      C1775   1.412       .  A
C1774      C1779   1.413       .  A
C1774      C1847   1.486       .  S
C1775      C1776   1.401       .  A
C1775      H1780   1.084       .  S
C1776      C1777   1.397       .  A
C1776      C1889   1.477       .  S
C1777      C1778   1.397       .  A
C1777      H1781   1.085       .  S
C1778      C1779   1.403       .  A
C1778      C1866   1.478       .  S
C1779      H1782   1.083       .  S
C1783      C1784   1.413       .  A
C1783      C1788   1.413       .  A
C1783      C1845   1.488       .  S
C1784      C1785   1.404       .  A
C1784      H1789   1.083       .  S
C1785      C1786   1.397       .  A
C1785      C1876   1.481       .  S
C1786      C1787   1.397       .  A
C1786      H1790   1.085       .  S
C1787      C1788   1.401       .  A
C1787      C1856   1.478       .  S
C1788      H1791   1.083       .  S
C1792      C1793   1.412       .  A
C1792      C1797   1.411       .  A
C1792      C1848   1.484       .  S
C1793      C1794   1.403       .  A
C1793      H1798   1.083       .  S
C1794      C1795   1.398       .  A
C1794      C1869   1.479       .  S
C1795      C1796   1.398       .  A
C1795      H1799   1.085       .  S
C1796      C1797   1.399       .  A
C1796      C1859   1.476       .  S
C1797      H1800   1.083       .  S
O1801      C1812   1.294       .  A
O1801     Eu1837   2.470       .  S
O1802      C1813   1.290       .  A
O1802     Eu1836   2.447       .  S
O1803      C1814   1.292       .  A
O1803     Eu2091   2.458       .  S
O1804      C1815   1.292       .  A
O1804     Eu1809   2.461       .  S
O1805      C1815   1.291       .  A
O1805     Eu1839   2.453       .  S
O1806      C1814   1.291       .  A
O1806     Eu1838   2.452       .  S
O1807      C1813   1.289       .  A
O1808      C1812   1.291       .  A
O1808     Eu1809   2.455       .  S
Eu1809     O2085   2.458       .  S
Eu1809     O1819   2.349       .  S
Eu1809     O2093   2.349       .  S
O1810     Eu1836   2.342       .  S
O1811     Eu2091   2.349       .  S
O1811     Eu2119   2.351       .  S
O1811     Eu1838   2.355       .  S
C1812      C1975   1.487       .  S
H1816      O1817   0.965       .  S
O1817     Eu2118   2.345       .  S
H1818      O1819   0.969       .  S
O1819     Eu1837   2.354       .  S
O1819     Eu1839   2.359       .  S
O1820      C1843   1.289       .  A
O1821      C1844   1.293       .  A
O1822      C1845   1.293       .  A
O1823      C1846   1.293       .  A
O1824      C1847   1.293       .  A
O1824     Eu1839   2.462       .  S
O1825      C1848   1.292       .  A
O1825     Eu1838   2.461       .  S
O1826      C1849   1.291       .  A
O1826     Eu2122   2.453       .  S
O1827      C1850   1.291       .  A
O1827     Eu1840   2.458       .  S
O1828      C1849   1.291       .  A
O1829      C1850   1.291       .  A
O1830      C1845   1.292       .  A
O1830     Eu2118   2.457       .  S
O1831      C1848   1.291       .  A
O1831     Eu2119   2.453       .  S
O1832      C1847   1.292       .  A
O1832     Eu1837   2.460       .  S
O1833      C1846   1.292       .  A
O1833     Eu1836   2.463       .  S
O1834      C1843   1.293       .  A
O1835      C1844   1.292       .  A
O1835     Eu1840   2.465       .  S
Eu1836     O2112   2.457       .  S
Eu1836     O2099   2.345       .  S
Eu1837     O2113   2.453       .  S
Eu1837     O2093   2.351       .  S
Eu1840     O2108   2.453       .  S
Eu1840     O1841   2.353       .  S
Eu1840     O2134   2.357       .  S
H1851      O1852   0.964       .  S
O1852     Eu2122   2.357       .  S
H1853      O1854   0.965       .  S
C1855      C1856   1.409       .  A
C1855      C1860   1.408       .  A
C1855     Br1862   1.928       .  S
C1857      C1858   1.405       .  A
C1857     Br1864   1.926       .  S
C1858     Br1863   1.929       .  S
C1859      C1860   1.409       .  A
C1860     Br1861   1.929       .  S
C1865      C1870   1.408       .  A
C1865     Br1872   1.927       .  S
C1866      C1867   1.409       .  A
C1867      C1868   1.407       .  A
C1867     Br1874   1.930       .  S
C1868      C1869   1.409       .  A
C1868     Br1873   1.929       .  S
C1870     Br1871   1.926       .  S
C1875      C1876   1.409       .  A
C1875      C1880   1.410       .  A
C1875     Br1882   1.926       .  S
C1877      C1878   1.406       .  A
C1877     Br1884   1.930       .  S
C1878     Br1883   1.928       .  S
C1879      C1880   1.409       .  A
C1880     Br1881   1.925       .  S
C1885      C1890   1.404       .  A
C1885     Br1892   1.929       .  S
C1886      C1887   1.411       .  A
C1887      C1888   1.410       .  A
C1887     Br1894   1.929       .  S
C1888      C1889   1.410       .  A
C1888     Br1893   1.930       .  S
C1890     Br1891   1.933       .  S
C1895      C1896   1.405       .  A
C1895      C1900   1.402       .  A
C1895     Br1902   1.931       .  S
C1897      C1898   1.409       .  A
C1897     Br1904   1.929       .  S
C1898     Br1903   1.929       .  S
C1899      C1900   1.410       .  A
C1900     Br1901   1.922       .  S
C1905      C1906   1.409       .  A
C1905      C1910   1.401       .  A
C1905     Br1912   1.924       .  S
C1907      C1908   1.409       .  A
C1907     Br1914   1.927       .  S
C1908     Br1913   1.927       .  S
C1909      C1910   1.408       .  A
C1910     Br1911   1.929       .  S
C1915      C1916   1.412       .  A
C1915      C1920   1.404       .  A
C1915     Br1922   1.935       .  S
C1916      C1917   1.413   1_545  A
C1917      C1918   1.410       .  A
C1917     Br1924   1.931       .  S
C1918      C1919   1.413   1_565  A
C1918     Br1923   1.931       .  S
C1919      C1920   1.412       .  A
C1920     Br1921   1.935       .  S
C1925      C1926   1.405       .  A
C1925      C1930   1.403       .  A
C1925     Br1932   1.928       .  S
C1927      C1928   1.408       .  A
C1927     Br1934   1.928       .  S
C1928     Br1933   1.929       .  S
C1929      C1930   1.409       .  A
C1930     Br1931   1.923       .  S
C1935      C1936   1.413       .  A
C1935      C1940   1.411       .  A
C1935     Br1942   1.928       .  S
C1936      C2219   1.415       .  A
C1937      C2218   1.415       .  A
C1937      C1938   1.404       .  A
C1937     Br1944   1.934       .  S
C1938      C2221   1.408       .  A
C1938     Br1943   1.931       .  S
C1939      C2220   1.408       .  A
C1939      C1940   1.411       .  A
C1940     Br1941   1.928       .  S
C1945      C1946   1.425       .  A
C1945      C1950   1.430       .  A
C1945     Br1952   1.933       .  S
C1946      C2229   1.403       .  A
C1947      C2228   1.403       .  A
C1947      C1948   1.385       .  A
C1947     Br1954   1.927       .  S
C1948      C2231   1.415       .  A
C1948     Br1953   1.933   1_554  S
C1949      C2230   1.415       .  A
C1949      C1950   1.434       .  A
C1950     Br1951   1.931       .  S
C1955      C1956   1.406   1_554  A
C1955      C1960   1.410       .  A
C1955     Br1962   1.925       .  S
C1956      C2239   1.407       .  A
C1957      C2238   1.407       .  A
C1957      C1958   1.412       .  A
C1957     Br1964   1.928       .  S
C1958      C2241   1.416       .  A
C1958     Br1963   1.927       .  S
C1959      C2240   1.416       .  A
C1959      C1960   1.417   1_556  A
C1960     Br1961   1.932       .  S
C1965      C2248   1.411       .  A
C1965      C1970   1.377       .  A
C1965     Br1972   1.936   1_556  S
C1966      C2247   1.411       .  A
C1966      C1967   1.434       .  A
C1967      C1968   1.432       .  A
C1967     Br1974   1.930       .  S
C1968      C1969   1.428       .  A
C1968     Br1973   1.930       .  S
C1969      C2252   1.397       .  A
C1970      C2251   1.397       .  A
C1970     Br1971   1.923       .  S
C1975      C1980   1.412       .  A
C1976      C1977   1.413   1_554  A
C1976      H1981   1.074       .  S
C1977      C1978   1.411       .  A
C1977      C2248   1.520       .  S
C1978      H1982   1.079       .  S
C1979      C1980   1.400       .  A
C1979      C2241   1.495       .  S
C1980      H1983   1.083       .  S
C1984      C1985   1.410       .  A
C1984      C1989   1.410   1_554  A
C1984      C2095   1.470       .  S
C1985      C1986   1.395       .  A
C1985      H1990   1.082       .  S
C1986      C1987   1.405       .  A
C1986      C2228   1.506       .  S
C1987      C1988   1.411   1_554  A
C1987      H1991   1.075       .  S
C1988      C1989   1.400       .  A
C1988      C2251   1.511       .  S
C1989      H1992   1.080       .  S
C1993      C1994   1.416       .  A
C1993      C1998   1.410       .  A
C1993      C2125   1.484       .  S
C1994      C1995   1.416       .  A
C1994      H1999   1.075       .  S
C1995      C1996   1.410       .  A
C1995      C2231   1.528       .  S
C1996      C1997   1.392       .  A
C1996      H2000   1.061       .  S
C1997      C1998   1.390       .  A
C1997      C2218   1.491       .  S
C1998      H2001   1.083       .  S
C2002      C2007   1.410   1_556  A
C2002      C2126   1.488       .  S
C2003      C2004   1.406       .  A
C2003      H2008   1.083       .  S
C2004      C2238   1.486       .  S
C2005      C2006   1.403   1_556  A
C2005      H2009   1.085       .  S
C2006      C2007   1.401       .  A
C2006      C2221   1.484       .  S
C2007      H2010   1.084       .  S
C2011      C2012   1.410       .  A
C2011      C2016   1.413       .  A
C2011      C2097   1.484       .  S
C2012      C2013   1.399       .  A
C2012      H2017   1.083       .  S
C2013      C2014   1.394       .  A
C2013      C2208   1.473       .  S
C2014      C2015   1.398       .  A
C2014      H2018   1.085       .  S
C2015      C2016   1.404       .  A
C2015      C2201   1.485   1_565  S
C2016      H2019   1.083   1_565  S
C2020      C2021   1.411       .  A
C2020      C2025   1.411       .  A
C2020      C2132   1.482       .  S
C2021      C2022   1.400       .  A
C2021      H2026   1.083       .  S
C2022      C2023   1.399       .  A
C2022      C2191   1.480       .  S
C2023      C2024   1.397       .  A
C2023      H2027   1.085       .  S
C2024      C2025   1.401       .  A
C2024      C2211   1.477       .  S
C2025      H2028   1.083       .  S
C2029      C2030   1.410       .  A
C2029      C2034   1.410       .  A
C2029      C2131   1.480       .  S
C2030      C2031   1.400       .  A
C2030      H2035   1.083       .  S
C2031      C2032   1.401       .  A
C2031      C2188   1.482       .  S
C2032      C2033   1.400       .  A
C2032      H2036   1.085       .  S
C2033      C2034   1.400       .  A
C2033      C2181   1.479       .  S
C2034      H2037   1.084       .  S
C2038      C2039   1.412       .  A
C2038      C2043   1.409       .  A
C2038      C2096   1.481       .  S
C2039      C2040   1.403       .  A
C2039      H2044   1.083       .  S
C2040      C2041   1.399       .  A
C2040      C2198   1.485   1_565  S
C2041      C2042   1.395       .  A
C2041      H2045   1.085       .  S
C2042      C2043   1.398       .  A
C2042      C2178   1.472       .  S
C2043      H2046   1.083       .  S
C2047      C2048   1.414       .  A
C2047      C2052   1.415       .  A
C2047      C2128   1.491       .  S
C2048      C2049   1.403       .  A
C2048      H2053   1.083       .  S
C2049      C2050   1.397       .  A
C2049      C2168   1.481       .  S
C2050      C2051   1.397       .  A
C2050      H2054   1.085       .  S
C2051      C2052   1.405       .  A
C2051      C2161   1.483       .  S
C2052      H2055   1.083       .  S
C2056      C2057   1.412       .  A
C2056      C2061   1.413       .  A
C2056      C2129   1.486       .  S
C2057      C2058   1.401       .  A
C2057      H2062   1.084       .  S
C2058      C2059   1.397       .  A
C2058      C2171   1.477       .  S
C2059      C2060   1.397       .  A
C2059      H2063   1.085       .  S
C2060      C2061   1.403       .  A
C2060      C2148   1.478       .  S
C2061      H2064   1.083       .  S
C2065      C2066   1.413       .  A
C2065      C2070   1.413       .  A
C2065      C2127   1.488       .  S
C2066      C2067   1.404       .  A
C2066      H2071   1.083       .  S
C2067      C2068   1.397       .  A
C2067      C2158   1.481       .  S
C2068      C2069   1.397       .  A
C2068      H2072   1.085       .  S
C2069      C2070   1.401       .  A
C2069      C2138   1.478       .  S
C2070      H2073   1.083       .  S
C2074      C2075   1.412       .  A
C2074      C2079   1.411       .  A
C2074      C2130   1.484       .  S
C2075      C2076   1.403       .  A
C2075      H2080   1.083       .  S
C2076      C2077   1.398       .  A
C2076      C2151   1.479       .  S
C2077      C2078   1.398       .  A
C2077      H2081   1.085       .  S
C2078      C2079   1.399       .  A
C2078      C2141   1.476       .  S
C2079      H2082   1.083       .  S
O2083      C2094   1.294       .  A
O2083     Eu2119   2.470       .  S
O2084      C2095   1.290   1_556  A
O2084     Eu2118   2.447   1_556  S
O2085      C2096   1.292       .  A
O2086      C2097   1.292       .  A
O2086     Eu2091   2.461   1_556  S
O2087      C2097   1.291       .  A
O2087     Eu2121   2.453       .  S
O2088      C2096   1.291       .  A
O2088     Eu2120   2.452       .  S
O2089      C2095   1.289       .  A
O2090      C2094   1.291       .  A
O2090     Eu2091   2.455       .  S
Eu2091     O2101   2.349   1_554  S
O2092     Eu2118   2.342   1_556  S
O2093     Eu2120   2.355       .  S
H2098      O2099   0.965       .  S
H2100      O2101   0.969       .  S
O2101     Eu2119   2.354   1_556  S
O2101     Eu2121   2.359       .  S
O2102      C2125   1.289       .  A
O2103      C2126   1.293       .  A
O2104      C2127   1.293       .  A
O2105      C2128   1.293       .  A
O2106      C2129   1.293       .  A
O2106     Eu2121   2.462       .  S
O2107      C2130   1.292       .  A
O2107     Eu2120   2.461       .  S
O2108      C2131   1.291       .  A
O2109      C2132   1.291       .  A
O2109     Eu2122   2.458   1_556  S
O2110      C2131   1.291       .  A
O2111      C2132   1.291       .  A
O2112      C2127   1.292       .  A
O2113      C2130   1.291       .  A
O2114      C2129   1.292       .  A
O2114     Eu2119   2.460   1_556  S
O2115      C2128   1.292       .  A
O2115     Eu2118   2.463   1_556  S
O2116      C2125   1.293       .  A
O2117      C2126   1.292       .  A
O2117     Eu2122   2.465   1_556  S
Eu2122     O2123   2.353   1_554  S
H2133      O2134   0.964       .  S
H2135      O2136   0.965       .  S
C2137      C2138   1.409       .  A
C2137      C2142   1.408       .  A
C2137     Br2144   1.928       .  S
C2139      C2140   1.405       .  A
C2139     Br2146   1.926       .  S
C2140     Br2145   1.929       .  S
C2141      C2142   1.409       .  A
C2142     Br2143   1.929       .  S
C2147      C2152   1.408       .  A
C2147     Br2154   1.927       .  S
C2148      C2149   1.409       .  A
C2149      C2150   1.407       .  A
C2149     Br2156   1.930       .  S
C2150      C2151   1.409       .  A
C2150     Br2155   1.929       .  S
C2152     Br2153   1.926       .  S
C2157      C2158   1.409       .  A
C2157      C2162   1.410       .  A
C2157     Br2164   1.926       .  S
C2159      C2160   1.406       .  A
C2159     Br2166   1.930       .  S
C2160     Br2165   1.928       .  S
C2161      C2162   1.409       .  A
C2162     Br2163   1.925       .  S
C2167      C2172   1.404       .  A
C2167     Br2174   1.929       .  S
C2168      C2169   1.411       .  A
C2169      C2170   1.410       .  A
C2169     Br2176   1.929       .  S
C2170      C2171   1.410       .  A
C2170     Br2175   1.930       .  S
C2172     Br2173   1.933       .  S
C2177      C2178   1.405       .  A
C2177      C2182   1.402       .  A
C2177     Br2184   1.931       .  S
C2179      C2180   1.409       .  A
C2179     Br2186   1.929       .  S
C2180     Br2185   1.929       .  S
C2181      C2182   1.410       .  A
C2182     Br2183   1.922       .  S
C2187      C2188   1.409       .  A
C2187      C2192   1.401       .  A
C2187     Br2194   1.924       .  S
C2189      C2190   1.409       .  A
C2189     Br2196   1.927       .  S
C2190     Br2195   1.927       .  S
C2191      C2192   1.408       .  A
C2192     Br2193   1.929       .  S
C2197      C2198   1.412       .  A
C2197      C2202   1.404       .  A
C2197     Br2204   1.935       .  S
C2198      C2199   1.413   1_545  A
C2199      C2200   1.410       .  A
C2199     Br2206   1.931       .  S
C2200      C2201   1.413   1_565  A
C2200     Br2205   1.931       .  S
C2201      C2202   1.412       .  A
C2202     Br2203   1.935       .  S
C2207      C2208   1.405       .  A
C2207      C2212   1.403       .  A
C2207     Br2214   1.928       .  S
C2209      C2210   1.408       .  A
C2209     Br2216   1.928       .  S
C2210     Br2215   1.929       .  S
C2211      C2212   1.409       .  A
C2212     Br2213   1.923       .  S
C2217      C2218   1.413   1_556  A
C2217      C2222   1.411       .  A
C2217     Br2224   1.928       .  S
C2219      C2220   1.404       .  A
C2219     Br2226   1.934       .  S
C2220     Br2225   1.931       .  S
C2221      C2222   1.411   1_554  A
C2222     Br2223   1.928       .  S
C2227      C2228   1.425       .  A
C2227      C2232   1.430   1_554  A
C2227     Br2234   1.933   1_554  S
C2229      C2230   1.385       .  A
C2229     Br2236   1.927       .  S
C2230     Br2235   1.933       .  S
C2231      C2232   1.434   1_554  A
C2232     Br2233   1.931       .  S
C2237      C2238   1.406       .  A
C2237      C2242   1.410       .  A
C2237     Br2244   1.925       .  S
C2239      C2240   1.412       .  A
C2239     Br2246   1.928       .  S
C2240     Br2245   1.927       .  S
C2241      C2242   1.417       .  A
C2242     Br2243   1.932       .  S
C2247      C2252   1.377       .  A
C2247     Br2254   1.936       .  S
C2248      C2249   1.434       .  A
C2249      C2250   1.432       .  A
C2249     Br2256   1.930       .  S
C2250      C2251   1.428       .  A
C2250     Br2255   1.930   1_556  S
C2252     Br2253   1.923       .  S
