geometry optimzed in LAMMPS
_audit_creation_date              2020-12-01 
_audit_creation_method            'lammps2cif' 
_symmetry_space_group_name_H-M    'P1' 
_symmetry_Int_Tables_number       1 
_symmetry_cell_setting            triclinic 
loop_ 
_symmetry_equiv_pos_as_xyz 
  x,y,z 
_cell_length_a                    28.74191005 
_cell_length_b                    29.245664022209496 
_cell_length_c                    28.37715760166811 
_cell_angle_alpha                 89.91258618873837 
_cell_angle_beta                  90.21944120430585 
_cell_angle_gamma                 89.80124557424145 
loop_ 
_atom_site_label 
_atom_site_type_symbol 
_atom_site_fract_x 
_atom_site_fract_y 
_atom_site_fract_z 
_atom_site_charge 
N1          N  0.44488452  0.44464854  0.08806967    -0.07100
N2          N  0.41479459  0.43482929  0.12152068    -0.59300
N3          N  0.05171270  0.41295591  0.05620798    -0.06800
N4          N  0.08426840  0.38236728  0.06495891    -0.61400
N5          N  0.05088187  0.44389822  0.08961309    -0.06400
N6          N  0.08258542  0.43485079  0.12196963    -0.59200
N7          N  0.44508499  0.41266259  0.05545848    -0.06100
N8          N  0.41499596  0.38023205  0.06635322    -0.61700
C9          C  0.39587152  0.39508720  0.10714202     0.95000
C10         C  0.10361060  0.39660614  0.10593767     0.94800
N11         N  0.05570225  0.44493418  0.41309954    -0.07300
N12         N  0.08836263  0.43552654  0.38188551    -0.59800
N13         N  0.44803531  0.41401420  0.44286166    -0.05400
N14         N  0.41806647  0.38167655  0.43186058    -0.61100
N15         N  0.44896841  0.44561418  0.40977096    -0.07400
N16         N  0.41947740  0.43516053  0.37553805    -0.60100
N17         N  0.05471344  0.41305485  0.44588363    -0.05100
N18         N  0.08691055  0.38165592  0.43773604    -0.61200
Mn19       Mn  0.99967636  0.41215848  0.99991491     1.18400
C20         C  0.10836200  0.39656304  0.39825927     0.97100
C21         C  0.40040825  0.39518072  0.38986936     0.97800
N22         N  0.05277927  0.04973486  0.09106876    -0.07400
N23         N  0.08460018  0.05632648  0.12386786    -0.63700
N24         N  0.44773341  0.08451074  0.05629914    -0.06200
N25         N  0.41693419  0.11668638  0.06552658    -0.64400
N26         N  0.44671871  0.05264516  0.08891047    -0.06900
N27         N  0.41546410  0.06268989  0.12117926    -0.63900
N28         N  0.05465821  0.08191351  0.05876500    -0.05800
N29         N  0.08816707  0.11114606  0.06891794    -0.64600
Mn30       Mn  0.99863868  0.99777173  0.09060082     1.10700
C31         C  0.10700595  0.09413498  0.10912723     0.98300
C32         C  0.39663863  0.10247907  0.10590376     0.98400
N33         N  0.44969999  0.05508110  0.41175461    -0.06900
N34         N  0.41921243  0.06586250  0.37858724    -0.62300
N35         N  0.05556564  0.08451184  0.44832352    -0.06200
N36         N  0.08670428  0.11662058  0.44084392    -0.59000
N37         N  0.05612959  0.05415618  0.41420310    -0.07500
N38         N  0.08776755  0.06547482  0.38255520    -0.61800
N39         N  0.44936717  0.08616641  0.44528319    -0.06500
N40         N  0.41857944  0.11853730  0.43562843    -0.59000
Mn41       Mn  0.50273597  0.49993511  0.41072667     1.20200
Mn42       Mn  0.50182944  0.08550396  0.50215267     1.10100
Cl43       Cl  0.00036154  0.99874191  0.00081981    -0.87000
C44         C  0.39984753  0.10535421  0.39404784     0.95400
C45         C  0.10662949  0.10462382  0.39972062     0.95100
C46         C  0.22488863  0.22012536  0.27865008    -0.03500
C47         C  0.22018658  0.27442054  0.27636786    -0.03500
C48         C  0.21968234  0.27278002  0.22066013    -0.03500
C49         C  0.22214114  0.21864929  0.22326810    -0.03500
C50         C  0.27911385  0.22370046  0.27681682    -0.03500
C51         C  0.27727193  0.22263662  0.22090095    -0.03500
C52         C  0.27474662  0.27635123  0.22088757    -0.03500
C53         C  0.27545556  0.27757903  0.27584152    -0.03500
C54         C  0.14040092  0.13348043  0.37363577    -0.07100
C55         C  0.16748225  0.11298729  0.33884722    -0.18300
C56         C  0.19688415  0.13852658  0.30946350     0.10100
C57         C  0.20027199  0.18708360  0.31450586    -0.07100
C58         C  0.17521375  0.20621232  0.35247509    -0.18300
C59         C  0.14539918  0.18088964  0.38110616     0.10100
S60         S  0.22665283  0.10615456  0.26556314    -0.33300
S61         S  0.11279936  0.21262821  0.42430377    -0.33300
H62         H  0.06952069  0.19782242  0.40677893     0.28100
H63         H  0.19377653  0.07085487  0.26104024     0.28100
H64         H  0.16507757  0.07632604  0.33411727     0.18700
H65         H  0.17747566  0.24173380  0.36032229     0.18700
C66         C  0.19033108  0.30426057  0.18738989    -0.07100
C67         C  0.17959896  0.34861386  0.20385245    -0.18300
C68         C  0.15483954  0.38088632  0.17752356     0.10100
C69         C  0.13712866  0.36860739  0.13313268    -0.07100
C70         C  0.14817360  0.32564528  0.11526138    -0.18300
C71         C  0.17400285  0.29361019  0.14089290     0.10100
S72         S  0.14802891  0.43693465  0.20297355    -0.33300
S73         S  0.18444637  0.24204132  0.10891441    -0.33300
H74         H  0.14138881  0.24032185  0.08516081     0.28100
H75         H  0.16009840  0.45990111  0.16114672     0.28100
H76         H  0.18983982  0.35879878  0.23817083     0.18700
H77         H  0.13614856  0.31662765  0.08028507     0.18700
C78         C  0.36352126  0.13093227  0.13298491    -0.07100
C79         C  0.35532015  0.17563491  0.11758708    -0.18300
C80         C  0.32607587  0.20557462  0.14197616     0.10100
C81         C  0.30803763  0.19290823  0.18733218    -0.07100
C82         C  0.31418880  0.14670327  0.19974516    -0.18300
C83         C  0.34083280  0.11586331  0.17391962     0.10100
S84         S  0.30823530  0.25288098  0.10582101    -0.33300
S85         S  0.34398353  0.05811537  0.19596016    -0.33300
H86         H  0.33434015  0.03835129  0.15180958     0.28100
H87         H  0.26830540  0.26058139  0.13125575     0.28100
H88         H  0.37021182  0.18696710  0.08454333     0.18700
H89         H  0.30037540  0.13467482  0.23194457     0.18700
C90         C  0.19058071  0.18250944  0.19714206    -0.07100
C91         C  0.21008584  0.15758187  0.15892869    -0.18300
C92         C  0.18481842  0.12719378  0.13085808     0.10100
C93         C  0.13774756  0.12044887  0.14003247    -0.07100
C94         C  0.11781059  0.14141340  0.17880567    -0.18300
C95         C  0.14264247  0.17143733  0.20772103     0.10100
S96         S  0.21413158  0.10041644  0.08192641    -0.33300
S97         S  0.10742453  0.18796239  0.25720728    -0.33300
H98         H  0.13581284  0.22167218  0.27384002     0.28100
H99         H  0.18564812  0.06148490  0.07973726     0.28100
H100        H  0.24340715  0.16529863  0.14530758     0.18700
H101        H  0.08145704  0.13455114  0.18625243     0.18700
C102        C  0.37033027  0.36600742  0.35993393    -0.07100
C103        C  0.33576707  0.38600164  0.33195834    -0.18300
C104        C  0.30612864  0.35945687  0.30325093     0.10100
C105        C  0.30917429  0.31060098  0.30355849    -0.07100
C106        C  0.34655540  0.29220210  0.33000503    -0.18300
C107        C  0.37658854  0.31845958  0.35743865     0.10100
S108        S  0.26621867  0.39034220  0.26662012    -0.33300
S109        S  0.42467133  0.28888969  0.38525037    -0.33300
H110        H  0.45781693  0.32224313  0.37332962     0.28100
H111        H  0.28506972  0.43432601  0.27216717     0.28100
H112        H  0.33189746  0.42282281  0.33289842     0.18700
H113        H  0.35625409  0.25735410  0.32755739     0.18700
C114        C  0.36950867  0.13516703  0.36494049    -0.07100
C115        C  0.33286983  0.15930266  0.38590063    -0.18300
C116        C  0.30470265  0.18972772  0.35955775     0.10100
C117        C  0.31045148  0.19345653  0.30972076    -0.07100
C118        C  0.35129984  0.17351564  0.29164902    -0.18300
C119        C  0.37979896  0.14413845  0.31752075     0.10100
S120        S  0.27081733  0.23040300  0.39238412    -0.33300
S121        S  0.43135482  0.12286754  0.28867259    -0.33300
H122        H  0.46111312  0.13143290  0.32713817     0.28100
H123        H  0.27034899  0.20642222  0.43537939     0.28100
H124        H  0.32790218  0.15598079  0.42355256     0.18700
H125        H  0.36370281  0.18255467  0.25757495     0.18700
C126        C  0.18747968  0.30557313  0.30726286    -0.07100
C127        C  0.20763858  0.32480838  0.34840304    -0.18300
C128        C  0.18389994  0.35516900  0.37825091     0.10100
C129        C  0.13743165  0.36658355  0.36847970    -0.07100
C130        C  0.11580479  0.34689401  0.32981009    -0.18300
C131        C  0.13862085  0.31667606  0.29935889     0.10100
S132        S  0.21517056  0.37817565  0.42804030    -0.33300
S133        S  0.09836978  0.30028124  0.25274421    -0.33300
H134        H  0.12442093  0.27220655  0.22411859     0.28100
H135        H  0.18823089  0.41802616  0.43322402     0.28100
H136        H  0.24236077  0.31569219  0.35875086     0.18700
H137        H  0.07952190  0.35546246  0.32338752     0.18700
C138        C  0.30777496  0.30987167  0.19383125    -0.07100
C139        C  0.28933125  0.34500273  0.16473145    -0.18300
C140        C  0.31696903  0.37394270  0.13755803     0.10100
C141        C  0.36516776  0.36752222  0.13708438    -0.07100
C142        C  0.38493142  0.33431429  0.16632077    -0.18300
C143        C  0.35736500  0.30621155  0.19514107     0.10100
S144        S  0.28802953  0.41707393  0.10240332    -0.33300
S145        S  0.38766541  0.26424148  0.22971219    -0.33300
H146        H  0.43187085  0.28471215  0.22871631     0.28100
H147        H  0.32375822  0.44966082  0.10449006     0.28100
H148        H  0.25327330  0.35079980  0.16104645     0.18700
H149        H  0.42236979  0.32998118  0.16593184     0.18700
N150        N  0.44545735  0.44481043  0.58801294    -0.07100
N151        N  0.41543757  0.43507459  0.62156462    -0.59300
N152        N  0.05153488  0.41276467  0.55635183    -0.06800
N153        N  0.08381378  0.38196217  0.56529313    -0.61400
N154        N  0.05075794  0.44374746  0.58972802    -0.06400
N155        N  0.08224076  0.43450723  0.62225915    -0.59200
N156        N  0.44555058  0.41278778  0.55543696    -0.06100
N157        N  0.41542701  0.38041767  0.56647741    -0.61700
C158        C  0.39640060  0.39534278  0.60731095     0.95000
C159        C  0.10306542  0.39611181  0.60633590     0.94800
N160        N  0.05600276  0.44516987  0.91306770    -0.07300
N161        N  0.08872830  0.43576767  0.88191224    -0.59800
N162        N  0.44793977  0.41389460  0.94298241    -0.05400
N163        N  0.41812112  0.38147657  0.93182113    -0.61100
N164        N  0.44896580  0.44551092  0.90990328    -0.07400
N165        N  0.41966909  0.43498774  0.87552805    -0.60100
N166        N  0.05493507  0.41328147  0.94583186    -0.05100
N167        N  0.08715677  0.38188796  0.93773084    -0.61200
Mn168      Mn  0.99956113  0.41193421  0.50002116     1.18400
C169        C  0.10870555  0.39678969  0.89829696     0.97100
C170        C  0.40064776  0.39495028  0.88974970     0.97800
N171        N  0.05269249  0.04964748  0.59117992    -0.07400
N172        N  0.08438103  0.05643275  0.62408346    -0.63700
N173        N  0.44762353  0.08429481  0.55620847    -0.06200
N174        N  0.41646054  0.11618026  0.56526527    -0.64400
N175        N  0.44668674  0.05239808  0.58879338    -0.06900
N176        N  0.41513050  0.06214543  0.62087503    -0.63900
N177        N  0.05460639  0.08174007  0.55879636    -0.05800
N178        N  0.08802661  0.11106244  0.56893045    -0.64600
Mn179      Mn  0.99853603  0.99765365  0.59051777     1.10700
C180        C  0.10676049  0.09424219  0.60925603     0.98300
C181        C  0.39603919  0.10179129  0.60552202     0.98400
N182        N  0.44948521  0.05494747  0.91193783    -0.06900
N183        N  0.41898802  0.06572309  0.87878879    -0.62300
N184        N  0.05559953  0.08471829  0.94814377    -0.06200
N185        N  0.08688949  0.11667810  0.94058207    -0.59000
N186        N  0.05616790  0.05423565  0.91415416    -0.07500
N187        N  0.08795329  0.06526661  0.88255201    -0.61800
N188        N  0.44926208  0.08610449  0.94539321    -0.06500
N189        N  0.41856767  0.11854354  0.93569241    -0.59000
Mn190      Mn  0.50274092  0.49986436  0.91096607     1.20200
Mn191      Mn  0.50176679  0.08541881  0.00215607     1.10100
Cl192      Cl  0.00030549  0.99858940  0.50074843    -0.87000
C193        C  0.39976440  0.10530542  0.89416511     0.95400
C194        C  0.10692167  0.10441397  0.89956642     0.95100
C195        C  0.22512146  0.21992694  0.77836397    -0.03500
C196        C  0.22036769  0.27426862  0.77623249    -0.03500
C197        C  0.21994409  0.27270268  0.72050745    -0.03500
C198        C  0.22240554  0.21861054  0.72300829    -0.03500
C199        C  0.27933354  0.22355689  0.77659285    -0.03500
C200        C  0.27751284  0.22254993  0.72069150    -0.03500
C201        C  0.27499776  0.27628863  0.72071985    -0.03500
C202        C  0.27566331  0.27745169  0.77569041    -0.03500
C203        C  0.14080653  0.13307842  0.87334180    -0.07100
C204        C  0.16751607  0.11256541  0.83822952    -0.18300
C205        C  0.19680857  0.13808597  0.80865302     0.10100
C206        C  0.20058485  0.18662826  0.81401895    -0.07100
C207        C  0.17585970  0.20569862  0.85218397    -0.18300
C208        C  0.14609873  0.18043704  0.88088592     0.10100
S209        S  0.22566865  0.10578810  0.76398817    -0.33300
S210        S  0.11378676  0.21229815  0.92417181    -0.33300
H211        H  0.07040798  0.19812368  0.90633392     0.28100
H212        H  0.19276047  0.07044464  0.76006531     0.28100
H213        H  0.16480382  0.07594582  0.83332946     0.18700
H214        H  0.17828889  0.24121895  0.86005111     0.18700
C215        C  0.19053685  0.30404939  0.68724809    -0.07100
C216        C  0.17987098  0.34838359  0.70372584    -0.18300
C217        C  0.15485128  0.38055157  0.67754849     0.10100
C218        C  0.13652807  0.36805439  0.63348746    -0.07100
C219        C  0.14727227  0.32499898  0.61569543    -0.18300
C220        C  0.17373326  0.29322525  0.64095475     0.10100
S221        S  0.14863908  0.43677638  0.70268540    -0.33300
S222        S  0.18474524  0.24212559  0.60838236    -0.33300
H223        H  0.14098232  0.23935269  0.58610444     0.28100
H224        H  0.16024848  0.45940306  0.66052925     0.28100
H225        H  0.19039094  0.35862436  0.73794303     0.18700
H226        H  0.13478310  0.31580417  0.58093117     0.18700
C227        C  0.36279374  0.13017243  0.63258435    -0.07100
C228        C  0.35431656  0.17473777  0.61691904    -0.18300
C229        C  0.32566582  0.20498603  0.64160514     0.10100
C230        C  0.30803362  0.19257472  0.68718278    -0.07100
C231        C  0.31410531  0.14638075  0.69977451    -0.18300
C232        C  0.34056954  0.11537633  0.67391011     0.10100
S233        S  0.30824377  0.25268257  0.60579940    -0.33300
S234        S  0.34417782  0.05782118  0.69642445    -0.33300
H235        H  0.33443131  0.03764405  0.65250151     0.28100
H236        H  0.26842540  0.26066162  0.63131702     0.28100
H237        H  0.36878867  0.18584558  0.58360423     0.18700
H238        H  0.30039164  0.13450655  0.73214200     0.18700
C239        C  0.19066147  0.18276828  0.69676931    -0.07100
C240        C  0.21000292  0.15780671  0.65850457    -0.18300
C241        C  0.18456787  0.12747220  0.63054742     0.10100
C242        C  0.13755849  0.12068221  0.63998912    -0.07100
C243        C  0.11775066  0.14181332  0.67873518    -0.18300
C244        C  0.14272492  0.17186880  0.70748423     0.10100
S245        S  0.21354249  0.10071552  0.58142668    -0.33300
S246        S  0.10778992  0.18851484  0.75712746    -0.33300
H247        H  0.13634922  0.22218586  0.77360723     0.28100
H248        H  0.18605734  0.06103320  0.58085422     0.28100
H249        H  0.24334507  0.16537542  0.64485013     0.18700
H250        H  0.08141785  0.13501271  0.68633116     0.18700
C251        C  0.37068339  0.36578477  0.85971648    -0.07100
C252        C  0.33625153  0.38582364  0.83163234    -0.18300
C253        C  0.30652109  0.35931178  0.80300626     0.10100
C254        C  0.30944996  0.31044635  0.80337545    -0.07100
C255        C  0.34682999  0.29200778  0.82980389    -0.18300
C256        C  0.37684254  0.31822577  0.85729746     0.10100
S257        S  0.26663048  0.39027385  0.76643385    -0.33300
S258        S  0.42474034  0.28856090  0.88531895    -0.33300
H259        H  0.45800199  0.32184822  0.87354315     0.28100
H260        H  0.28517160  0.43433663  0.77237054     0.28100
H261        H  0.33250460  0.42265501  0.83250073     0.18700
H262        H  0.35653228  0.25721331  0.82733366     0.18700
C263        C  0.36957092  0.13514624  0.86496880    -0.07100
C264        C  0.33302489  0.15945284  0.88585860    -0.18300
C265        C  0.30490399  0.18981026  0.85940984     0.10100
C266        C  0.31065576  0.19336860  0.80955905    -0.07100
C267        C  0.35148562  0.17332124  0.79154833    -0.18300
C268        C  0.37987870  0.14391071  0.81750755     0.10100
S269        S  0.27115305  0.23066072  0.89212989    -0.33300
S270        S  0.43122085  0.12215241  0.78863941    -0.33300
H271        H  0.46112771  0.13050981  0.82703500     0.28100
H272        H  0.27024068  0.20655304  0.93504030     0.28100
H273        H  0.32807257  0.15629320  0.92352981     0.18700
H274        H  0.36389447  0.18222030  0.75742598     0.18700
C275        C  0.18762415  0.30548950  0.80719542    -0.07100
C276        C  0.20785066  0.32481717  0.84827628    -0.18300
C277        C  0.18421145  0.35532884  0.87808487     0.10100
C278        C  0.13770877  0.36672136  0.86846921    -0.07100
C279        C  0.11599955  0.34696511  0.82988963    -0.18300
C280        C  0.13875338  0.31674325  0.79935690     0.10100
S281        S  0.21564096  0.37869174  0.92758076    -0.33300
S282        S  0.09833888  0.30063748  0.75276530    -0.33300
H283        H  0.12421623  0.27267065  0.72388505     0.28100
H284        H  0.18939858  0.41913529  0.93155257     0.28100
H285        H  0.24261282  0.31576936  0.85854111     0.18700
H286        H  0.07970875  0.35555989  0.82355823     0.18700
C287        C  0.30804256  0.30989748  0.69371172    -0.07100
C288        C  0.28966709  0.34520391  0.66475603    -0.18300
C289        C  0.31744198  0.37444217  0.63799306     0.10100
C290        C  0.36562940  0.36785454  0.63737416    -0.07100
C291        C  0.38527971  0.33441559  0.66641423    -0.18300
C292        C  0.35762683  0.30621059  0.69506869     0.10100
S293        S  0.28883186  0.41842413  0.60372230    -0.33300
S294        S  0.38779639  0.26401103  0.72946231    -0.33300
H295        H  0.43205950  0.28436602  0.72856757     0.28100
H296        H  0.32426933  0.45113005  0.60812104     0.28100
H297        H  0.25358311  0.35099145  0.66103845     0.18700
H298        H  0.42270389  0.32997680  0.66600058     0.18700
N299        N  0.44510104  0.94503316  0.08795429    -0.07100
N300        N  0.41502540  0.93530938  0.12144083    -0.59300
N301        N  0.05177963  0.91289320  0.05658228    -0.06800
N302        N  0.08426431  0.88224204  0.06532064    -0.61400
N303        N  0.05090097  0.94377719  0.09004552    -0.06400
N304        N  0.08254365  0.93460650  0.12245021    -0.59200
N305        N  0.44522367  0.91303938  0.05534661    -0.06100
N306        N  0.41506320  0.88069190  0.06629675    -0.61700
C307        C  0.39599816  0.89561522  0.10709779     0.95000
C308        C  0.10355056  0.89635613  0.10634876     0.94800
N309        N  0.05593368  0.94493973  0.41321738    -0.07300
N310        N  0.08853564  0.93549245  0.38193229    -0.59800
N311        N  0.44821199  0.91426857  0.44256921    -0.05400
N312        N  0.41836582  0.88188305  0.43139315    -0.61100
N313        N  0.44915771  0.94593577  0.40954207    -0.07400
N314        N  0.41980377  0.93548484  0.37518983    -0.60100
N315        N  0.05498527  0.91306073  0.44600603    -0.05100
N316        N  0.08717183  0.88164735  0.43779655    -0.61200
Mn317      Mn  0.99986395  0.91204416  0.00025286     1.18400
C318        C  0.10856589  0.89651026  0.39825648     0.97100
C319        C  0.40081305  0.89542325  0.38937105     0.97800
N320        N  0.05296861  0.54976577  0.09085451    -0.07400
N321        N  0.08485133  0.55635939  0.12360830    -0.63700
N322        N  0.44762412  0.58415853  0.05625619    -0.06200
N323        N  0.41684664  0.61634516  0.06544253    -0.64400
N324        N  0.44660508  0.55231496  0.08888724    -0.06900
N325        N  0.41536704  0.56239384  0.12114225    -0.63900
N326        N  0.05486654  0.58190329  0.05852334    -0.05800
N327        N  0.08845171  0.61108373  0.06857261    -0.64600
Mn328      Mn  0.99872392  0.49784760  0.09031226     1.10700
C329        C  0.10733264  0.59410995  0.10877293     0.98300
C330        C  0.39656852  0.60216951  0.10582350     0.98400
N331        N  0.44947130  0.55476849  0.41197375    -0.06900
N332        N  0.41878840  0.56541580  0.37894696    -0.62300
N333        N  0.05558758  0.58453487  0.44780929    -0.06200
N334        N  0.08676304  0.61657965  0.44018349    -0.59000
N335        N  0.05612960  0.55406821  0.41379838    -0.07500
N336        N  0.08779816  0.56522480  0.38210338    -0.61800
N337        N  0.44931824  0.58598015  0.44538162    -0.06500
N338        N  0.41849040  0.61832541  0.43574960    -0.59000
Mn339      Mn  0.50290544  0.00020786  0.41064783     1.20200
Mn340      Mn  0.50197411  0.58540306  0.50210280     1.10100
Cl341      Cl  0.00039867  0.49882388  0.00051194    -0.87000
C342        C  0.39951929  0.60498318  0.39432861     0.95400
C343        C  0.10670718  0.60442097  0.39910551     0.95100
C344        C  0.22536501  0.72001924  0.27838094    -0.03500
C345        C  0.22055158  0.77433394  0.27613385    -0.03500
C346        C  0.22013915  0.77264907  0.22042364    -0.03500
C347        C  0.22270030  0.71854523  0.22300501    -0.03500
C348        C  0.27958764  0.72373247  0.27665412    -0.03500
C349        C  0.27780677  0.72264652  0.22073958    -0.03500
C350        C  0.27518316  0.77635189  0.22067601    -0.03500
C351        C  0.27583113  0.77762058  0.27563082    -0.03500
C352        C  0.14053838  0.63319983  0.37292899    -0.07100
C353        C  0.16747195  0.61275040  0.33796411    -0.18300
C354        C  0.19711420  0.63829643  0.30879483     0.10100
C355        C  0.20069471  0.68683049  0.31405254    -0.07100
C356        C  0.17565772  0.70589045  0.35203139    -0.18300
C357        C  0.14582134  0.68055557  0.38061125     0.10100
S358        S  0.22704396  0.60591764  0.26501848    -0.33300
S359        S  0.11367163  0.71226455  0.42415268    -0.33300
H360        H  0.07021195  0.69812848  0.40649638     0.28100
H361        H  0.19311325  0.57178293  0.25912206     0.28100
H362        H  0.16487961  0.57612518  0.33299087     0.18700
H363        H  0.17801668  0.74139593  0.35995603     0.18700
C364        C  0.19074780  0.80403036  0.18721578    -0.07100
C365        C  0.18010205  0.84835289  0.20374808    -0.18300
C366        C  0.15517846  0.88059677  0.17759945     0.10100
C367        C  0.13713203  0.86828585  0.13337180    -0.07100
C368        C  0.14807410  0.82530639  0.11541334    -0.18300
C369        C  0.17422518  0.79334365  0.14080401     0.10100
S370        S  0.14859949  0.93664191  0.20308027    -0.33300
S371        S  0.18498710  0.74197041  0.10855292    -0.33300
H372        H  0.14158065  0.73977660  0.08551000     0.28100
H373        H  0.16034321  0.95958251  0.16114501     0.28100
H374        H  0.19054577  0.85853266  0.23800244     0.18700
H375        H  0.13581158  0.81625172  0.08053148     0.18700
C376        C  0.36360631  0.63069945  0.13291583    -0.07100
C377        C  0.35526813  0.67529975  0.11729028    -0.18300
C378        C  0.32629816  0.70539226  0.14177397     0.10100
C379        C  0.30853962  0.69289391  0.18728100    -0.07100
C380        C  0.31477010  0.64676725  0.19991481    -0.18300
C381        C  0.34128114  0.61583268  0.17412003     0.10100
S382        S  0.30855375  0.75278650  0.10570015    -0.33300
S383        S  0.34463920  0.55821250  0.19648413    -0.33300
H384        H  0.33441158  0.53824034  0.15256729     0.28100
H385        H  0.26869374  0.76058093  0.13120001     0.28100
H386        H  0.36990071  0.68645709  0.08406227     0.18700
H387        H  0.30101543  0.63484926  0.23219305     0.18700
C388        C  0.19111648  0.68246559  0.19676661    -0.07100
C389        C  0.21061085  0.65735454  0.15865448    -0.18300
C390        C  0.18525858  0.62696190  0.13062836     0.10100
C391        C  0.13809965  0.62051550  0.13962016    -0.07100
C392        C  0.11813276  0.64180145  0.17818329    -0.18300
C393        C  0.14308491  0.67165903  0.20717872     0.10100
S394        S  0.21457283  0.59962351  0.08204958    -0.33300
S395        S  0.10795949  0.68813928  0.25673034    -0.33300
H396        H  0.13642007  0.72181907  0.27332811     0.28100
H397        H  0.18663273  0.56025202  0.08126335     0.28100
H398        H  0.24408176  0.66472791  0.14522203     0.18700
H399        H  0.08170661  0.63519057  0.18550783     0.18700
C400        C  0.37087587  0.86623976  0.35931649    -0.07100
C401        C  0.33642546  0.88621261  0.33119633    -0.18300
C402        C  0.30667492  0.85962308  0.30265046     0.10100
C403        C  0.30958053  0.81074140  0.30320558    -0.07100
C404        C  0.34695143  0.79237827  0.32968931    -0.18300
C405        C  0.37705708  0.81867902  0.35698539     0.10100
S406        S  0.26689286  0.89049728  0.26585024    -0.33300
S407        S  0.42512150  0.78912629  0.38484991    -0.33300
H408        H  0.45828157  0.82244972  0.37287833     0.28100
H409        H  0.28472761  0.93474704  0.27248973     0.28100
H410        H  0.33271536  0.92304951  0.33195110     0.18700
H411        H  0.35657009  0.75749997  0.32740004     0.18700
C412        C  0.36933859  0.63485936  0.36509839    -0.07100
C413        C  0.33284685  0.65929768  0.38596327    -0.18300
C414        C  0.30491196  0.68984987  0.35951241     0.10100
C415        C  0.31085156  0.69354955  0.30970310    -0.07100
C416        C  0.35171365  0.67350065  0.29180253    -0.18300
C417        C  0.37977284  0.64370674  0.31767391     0.10100
S418        S  0.27102676  0.73066103  0.39215585    -0.33300
S419        S  0.43083738  0.62146576  0.28870737    -0.33300
H420        H  0.46092487  0.62975620  0.32697087     0.28100
H421        H  0.27079862  0.70704757  0.43536610     0.28100
H422        H  0.32777662  0.65604548  0.42360821     0.18700
H423        H  0.36431664  0.68257229  0.25779266     0.18700
C424        C  0.18776779  0.80550014  0.30705734    -0.07100
C425        C  0.20791702  0.82477904  0.34818971    -0.18300
C426        C  0.18411481  0.85503327  0.37814024     0.10100
C427        C  0.13764204  0.86649149  0.36840540    -0.07100
C428        C  0.11606323  0.84686875  0.32966545    -0.18300
C429        C  0.13889448  0.81666339  0.29916716     0.10100
S430        S  0.21526330  0.87786130  0.42807499    -0.33300
S431        S  0.09859770  0.80040143  0.25253089    -0.33300
H432        H  0.12455304  0.77240438  0.22375358     0.28100
H433        H  0.18910702  0.91833610  0.43224091     0.28100
H434        H  0.24270398  0.81579698  0.35844212     0.18700
H435        H  0.07979298  0.85547466  0.32323206     0.18700
C436        C  0.30812767  0.80998124  0.19359064    -0.07100
C437        C  0.28958043  0.84507176  0.16448909    -0.18300
C438        C  0.31711049  0.87431659  0.13754972     0.10100
C439        C  0.36534333  0.86808674  0.13712408    -0.07100
C440        C  0.38520916  0.83487916  0.16630079    -0.18300
C441        C  0.35772975  0.80648590  0.19492921     0.10100
S442        S  0.28789797  0.91759072  0.10275252    -0.33300
S443        S  0.38803167  0.76433376  0.22933305    -0.33300
H444        H  0.43312472  0.78240531  0.22526790     0.28100
H445        H  0.32418867  0.94961160  0.10284158     0.28100
H446        H  0.25350841  0.85061778  0.16061832     0.18700
H447        H  0.42266959  0.83079251  0.16595081     0.18700
N448        N  0.44526349  0.94484955  0.58774054    -0.07100
N449        N  0.41502022  0.93516582  0.62109374    -0.59300
N450        N  0.05159956  0.91275670  0.55639973    -0.06800
N451        N  0.08401693  0.88205694  0.56518245    -0.61400
N452        N  0.05071369  0.94364206  0.58986324    -0.06400
N453        N  0.08227743  0.93442966  0.62231047    -0.59200
N454        N  0.44545182  0.91287340  0.55512482    -0.06100
N455        N  0.41519322  0.88056150  0.56595228    -0.61700
C456        C  0.39595949  0.89550169  0.60667921     0.95000
C457        C  0.10323926  0.89616002  0.60624176     0.94800
N458        N  0.05606013  0.94519650  0.91339006    -0.07300
N459        N  0.08869534  0.93581724  0.88212746    -0.59800
N460        N  0.44790840  0.91415465  0.94268513    -0.05400
N461        N  0.41814424  0.88173418  0.93135470    -0.61100
N462        N  0.44889082  0.94585576  0.90969545    -0.07400
N463        N  0.41965830  0.93542378  0.87524189    -0.60100
N464        N  0.05513105  0.91330184  0.94616272    -0.05100
N465        N  0.08734955  0.88192754  0.93794480    -0.61200
Mn466      Mn  0.99971066  0.91189779  0.50012302     1.18400
C467        C  0.10875653  0.89684805  0.89843374     0.97100
C468        C  0.40068011  0.89533178  0.88929775     0.97800
N469        N  0.05282398  0.54980904  0.59077320    -0.07400
N470        N  0.08446043  0.55671004  0.62370105    -0.63700
N471        N  0.44802256  0.58439681  0.55628133    -0.06200
N472        N  0.41715273  0.61650521  0.56549219    -0.64400
N473        N  0.44704116  0.55250296  0.58886572    -0.06900
N474        N  0.41572568  0.56246879  0.62110457    -0.63900
N475        N  0.05470881  0.58188461  0.55836287    -0.05800
N476        N  0.08802914  0.61131409  0.56852005    -0.64600
Mn477      Mn  0.99863175  0.49776602  0.59030104     1.10700
C478        C  0.10675628  0.59457260  0.60888317     0.98300
C479        C  0.39684132  0.60223941  0.60583655     0.98400
N480        N  0.44945829  0.55477128  0.91189104    -0.06900
N481        N  0.41897331  0.56554263  0.87869994    -0.62300
N482        N  0.05583280  0.58466441  0.94802943    -0.06200
N483        N  0.08705699  0.61668721  0.94050909    -0.59000
N484        N  0.05641102  0.55424086  0.91397374    -0.07500
N485        N  0.08812240  0.56541009  0.88234636    -0.61800
N486        N  0.44912884  0.58589468  0.94538442    -0.06500
N487        N  0.41835068  0.61827042  0.93568029    -0.59000
Mn488      Mn  0.50263650  0.00004371  0.91078532     1.20200
Mn489      Mn  0.50165971  0.58523070  0.00226043     1.10100
Cl490      Cl  0.00029719  0.49864704  0.50054877    -0.87000
C491        C  0.39961071  0.60507156  0.89410136     0.95400
C492        C  0.10703628  0.60455416  0.89943958     0.95100
C493        C  0.22521491  0.72017727  0.77841190    -0.03500
C494        C  0.22049778  0.77450267  0.77615984    -0.03500
C495        C  0.21999319  0.77279181  0.72042931    -0.03500
C496        C  0.22242452  0.71869601  0.72305284    -0.03500
C497        C  0.27943931  0.72377387  0.77654420    -0.03500
C498        C  0.27755113  0.72263931  0.72063676    -0.03500
C499        C  0.27504252  0.77637947  0.72055363    -0.03500
C500        C  0.27576872  0.77766770  0.77550441    -0.03500
C501        C  0.14083880  0.63333696  0.87328547    -0.07100
C502        C  0.16781566  0.61285354  0.83838589    -0.18300
C503        C  0.19714276  0.63842469  0.80892337     0.10100
C504        C  0.20069470  0.68697569  0.81416389    -0.07100
C505        C  0.17574680  0.70605164  0.85220128    -0.18300
C506        C  0.14586758  0.68074163  0.88075100     0.10100
S507        S  0.22640534  0.60614736  0.76456446    -0.33300
S508        S  0.11302072  0.71257615  0.92366193    -0.33300
H509        H  0.06985437  0.69776495  0.90584989     0.28100
H510        H  0.19338476  0.57095829  0.76019363     0.28100
H511        H  0.16530584  0.57620746  0.83356254     0.18700
H512        H  0.17800839  0.74158942  0.86001808     0.18700
C513        C  0.19058322  0.80408018  0.68714938    -0.07100
C514        C  0.17977842  0.84834892  0.70369005    -0.18300
C515        C  0.15473590  0.88049148  0.67754885     0.10100
C516        C  0.13672844  0.86811180  0.63332926    -0.07100
C517        C  0.14771784  0.82515306  0.61540166    -0.18300
C518        C  0.17406084  0.79333514  0.64074110     0.10100
S519        S  0.14802086  0.93652637  0.70300548    -0.33300
S520        S  0.18516660  0.74222096  0.60822262    -0.33300
H521        H  0.14124743  0.73928325  0.58629652     0.28100
H522        H  0.16008645  0.95943860  0.66114775     0.28100
H523        H  0.19028819  0.85859930  0.73790298     0.18700
H524        H  0.13543496  0.81602614  0.58053812     0.18700
C525        C  0.36364219  0.63065027  0.63287605    -0.07100
C526        C  0.35521365  0.67524474  0.61727445    -0.18300
C527        C  0.32609163  0.70526640  0.64169173     0.10100
C528        C  0.30822067  0.69274561  0.68714704    -0.07100
C529        C  0.31445017  0.64657691  0.69972515    -0.18300
C530        C  0.34113735  0.61569612  0.67396409     0.10100
S531        S  0.30837617  0.75266412  0.60560467    -0.33300
S532        S  0.34454851  0.55803955  0.69622762    -0.33300
H533        H  0.33476714  0.53810276  0.65219200     0.28100
H534        H  0.26867129  0.76068582  0.63124705     0.28100
H535        H  0.36993391  0.68647187  0.58411211     0.18700
H536        H  0.30071118  0.63462567  0.73200463     0.18700
C537        C  0.19064369  0.68280990  0.69684543    -0.07100
C538        C  0.21001794  0.65785217  0.65860429    -0.18300
C539        C  0.18456003  0.62767753  0.63047310     0.10100
C540        C  0.13747253  0.62108102  0.63966030    -0.07100
C541        C  0.11762006  0.64215085  0.67841499    -0.18300
C542        C  0.14265145  0.67193648  0.70742921     0.10100
S543        S  0.21364023  0.60084282  0.58147647    -0.33300
S544        S  0.10774019  0.68808395  0.75726397    -0.33300
H545        H  0.13613822  0.72181655  0.77383515     0.28100
H546        H  0.18616406  0.56115313  0.58096058     0.28100
H547        H  0.24346482  0.66527804  0.64513008     0.18700
H548        H  0.08124808  0.63540609  0.68588995     0.18700
C549        C  0.37086448  0.86620761  0.85906734    -0.07100
C550        C  0.33638625  0.88620174  0.83097810    -0.18300
C551        C  0.30665212  0.85961748  0.80244449     0.10100
C552        C  0.30956517  0.81075377  0.80296832    -0.07100
C553        C  0.34704799  0.79237944  0.82925717    -0.18300
C554        C  0.37713608  0.81866558  0.85658326     0.10100
S555        S  0.26653034  0.89063366  0.76621892    -0.33300
S556        S  0.42521051  0.78910890  0.88439835    -0.33300
H557        H  0.45831515  0.82254546  0.87261033     0.28100
H558        H  0.28953191  0.93302044  0.76680458     0.28100
H559        H  0.33240805  0.92302645  0.83185069     0.18700
H560        H  0.35669463  0.75753312  0.82684477     0.18700
C561        C  0.36940719  0.63498883  0.86489048    -0.07100
C562        C  0.33286021  0.65934547  0.88577576    -0.18300
C563        C  0.30495910  0.68999287  0.85938432     0.10100
C564        C  0.31073150  0.69356884  0.80954491    -0.07100
C565        C  0.35155076  0.67349945  0.79156682    -0.18300
C566        C  0.37983527  0.64394529  0.81748625     0.10100
S567        S  0.27124829  0.73101451  0.89198739    -0.33300
S568        S  0.43126338  0.62233820  0.78868486    -0.33300
H569        H  0.46105811  0.63086480  0.82712919     0.28100
H570        H  0.27425364  0.70971284  0.93635602     0.28100
H571        H  0.32774078  0.65594094  0.92339424     0.18700
H572        H  0.36403879  0.68250539  0.75750722     0.18700
C573        C  0.18783622  0.80574547  0.80719067    -0.07100
C574        C  0.20805554  0.82508123  0.84828128    -0.18300
C575        C  0.18429092  0.85538778  0.87823902     0.10100
C576        C  0.13781570  0.86685660  0.86854167    -0.07100
C577        C  0.11618957  0.84720559  0.82984900    -0.18300
C578        C  0.13895512  0.81690087  0.79940514     0.10100
S579        S  0.21545193  0.87829917  0.92813235    -0.33300
S580        S  0.09857139  0.80038009  0.75297286    -0.33300
H581        H  0.12464452  0.77244352  0.72423944     0.28100
H582        H  0.18941940  0.91887781  0.93207768     0.28100
H583        H  0.24286872  0.81613148  0.85847468     0.18700
H584        H  0.07991430  0.85581128  0.82344617     0.18700
C585        C  0.30802292  0.81000184  0.69343766    -0.07100
C586        C  0.28951441  0.84530241  0.66456062    -0.18300
C587        C  0.31711012  0.87443908  0.63751443     0.10100
C588        C  0.36529429  0.86790909  0.63672148    -0.07100
C589        C  0.38511088  0.83450967  0.66569595    -0.18300
C590        C  0.35762535  0.80626341  0.69449125     0.10100
S591        S  0.28822463  0.91810420  0.60302893    -0.33300
S592        S  0.38792217  0.76402565  0.72878765    -0.33300
H593        H  0.43303046  0.78205026  0.72466570     0.28100
H594        H  0.32368634  0.95086022  0.60671702     0.28100
H595        H  0.25344022  0.85117767  0.66109977     0.18700
H596        H  0.42253926  0.83020699  0.66511947     0.18700
N597        N  0.94514975  0.44504122  0.08795663    -0.07100
N598        N  0.91498803  0.43542101  0.12141131    -0.59300
N599        N  0.55138519  0.41264857  0.05651098    -0.06800
N600        N  0.58377863  0.38192632  0.06528486    -0.61400
N601        N  0.55052467  0.44353047  0.08997492    -0.06400
N602        N  0.58207683  0.43429076  0.12242674    -0.59200
N603        N  0.94519851  0.41304267  0.05535999    -0.06100
N604        N  0.91490953  0.38079088  0.06629349    -0.61700
C605        C  0.89582809  0.39577570  0.10707698     0.95000
C606        C  0.60301788  0.39601349  0.10633875     0.94800
N607        N  0.55614453  0.44512820  0.41300072    -0.07300
N608        N  0.58878022  0.43575248  0.38173664    -0.59800
N609        N  0.94774717  0.41391018  0.44286975    -0.05400
N610        N  0.91794110  0.38149783  0.43162664    -0.61100
N611        N  0.94864032  0.44562565  0.40989124    -0.07400
N612        N  0.91929032  0.43522674  0.37554277    -0.60100
N613        N  0.55511191  0.41317263  0.44569607    -0.05100
N614        N  0.58727405  0.38175512  0.43744451    -0.61200
Mn615      Mn  0.49957050  0.41188653  0.00017760     1.18400
C616        C  0.60872940  0.39670930  0.39798002     0.97100
C617        C  0.90034877  0.39514331  0.38964403     0.97800
N618        N  0.55267774  0.04985371  0.09100994    -0.07400
N619        N  0.58438536  0.05666297  0.12387628    -0.63700
N620        N  0.94773314  0.08431654  0.05635284    -0.06200
N621        N  0.91668758  0.11630627  0.06536250    -0.64400
N622        N  0.94677287  0.05249813  0.08901310    -0.06900
N623        N  0.91533331  0.06242199  0.12113824    -0.63900
N624        N  0.55455514  0.08194140  0.05862576    -0.05800
N625        N  0.58795037  0.11128968  0.06870767    -0.64600
Mn626      Mn  0.49854995  0.99787022  0.09043468     1.10700
C627        C  0.60671572  0.09448274  0.10900753     0.98300
C628        C  0.89632310  0.10206202  0.10568054     0.98400
N629        N  0.94916253  0.05471598  0.41212617    -0.06900
N630        N  0.91856610  0.06553712  0.37906219    -0.62300
N631        N  0.55590902  0.08487878  0.44829723    -0.06200
N632        N  0.58718693  0.11689159  0.44090995    -0.59000
N633        N  0.55660769  0.05444829  0.41424660    -0.07500
N634        N  0.58846607  0.06558731  0.38276933    -0.61800
N635        N  0.94903972  0.08588092  0.44558329    -0.06500
N636        N  0.91831729  0.11833442  0.43596728    -0.59000
Mn637      Mn  0.00237165  0.49982152  0.41070508     1.20200
Mn638      Mn  0.00170767  0.08520320  0.50227940     1.10100
Cl639      Cl  0.50030042  0.99880784  0.00064440    -0.87000
C640        C  0.89937794  0.10514534  0.39448066     0.95400
C641        C  0.60732899  0.10472287  0.39992781     0.95100
C642        C  0.72519626  0.22007095  0.27841128    -0.03500
C643        C  0.72038194  0.27435123  0.27606348    -0.03500
C644        C  0.71989877  0.27262847  0.22036328    -0.03500
C645        C  0.72242682  0.21853584  0.22305116    -0.03500
C646        C  0.77940659  0.22377019  0.27657169    -0.03500
C647        C  0.77755820  0.22261834  0.22065117    -0.03500
C648        C  0.77492960  0.27635149  0.22054197    -0.03500
C649        C  0.77563268  0.27764797  0.27548711    -0.03500
C650        C  0.64118698  0.13346569  0.37382369    -0.07100
C651        C  0.66832332  0.11287299  0.33912144    -0.18300
C652        C  0.69743138  0.13839616  0.30939805     0.10100
C653        C  0.70081226  0.18698003  0.31437007    -0.07100
C654        C  0.67586336  0.20615476  0.35236978    -0.18300
C655        C  0.64598264  0.18092621  0.38098531     0.10100
S656        S  0.72645156  0.10606814  0.26490969    -0.33300
S657        S  0.61273304  0.21291595  0.42346043    -0.33300
H658        H  0.56973782  0.19764774  0.40563648     0.28100
H659        H  0.69408383  0.07020485  0.26151852     0.28100
H660        H  0.66596940  0.07618799  0.33455811     0.18700
H661        H  0.67802386  0.24170942  0.36005842     0.18700
C662        C  0.69043386  0.30391857  0.18711985    -0.07100
C663        C  0.67970400  0.34821430  0.20364017    -0.18300
C664        C  0.65466940  0.38037646  0.17752528     0.10100
C665        C  0.63659172  0.36798800  0.13334455    -0.07100
C666        C  0.64761873  0.32504806  0.11536461    -0.18300
C667        C  0.67395091  0.29319142  0.14069562     0.10100
S668        S  0.64808879  0.43645152  0.20294775    -0.33300
S669        S  0.68522375  0.24203187  0.10826336    -0.33300
H670        H  0.64219993  0.23981892  0.08449222     0.28100
H671        H  0.65989566  0.45934180  0.16100021     0.28100
H672        H  0.69023685  0.35846686  0.23782917     0.18700
H673        H  0.63537301  0.31600175  0.08047640     0.18700
C674        C  0.86314690  0.13050893  0.13264737    -0.07100
C675        C  0.85509121  0.17521564  0.11722127    -0.18300
C676        C  0.82620290  0.20535579  0.14173997     0.10100
C677        C  0.80819991  0.19277693  0.18713083    -0.07100
C678        C  0.81421159  0.14656225  0.19961509    -0.18300
C679        C  0.84051803  0.11554789  0.17364665     0.10100
S680        S  0.80905886  0.25307741  0.10584454    -0.33300
S681        S  0.84323324  0.05769816  0.19546916    -0.33300
H682        H  0.83394477  0.03811429  0.15115436     0.28100
H683        H  0.76889378  0.26076600  0.13089993     0.28100
H684        H  0.86996491  0.18647047  0.08413924     0.18700
H685        H  0.80047340  0.13463880  0.23189575     0.18700
C686        C  0.69065180  0.18260116  0.19690031    -0.07100
C687        C  0.71001403  0.15759160  0.15866996    -0.18300
C688        C  0.68454009  0.12734623  0.13063130     0.10100
C689        C  0.63741901  0.12097196  0.13973068    -0.07100
C690        C  0.61752229  0.14220731  0.17834371    -0.18300
C691        C  0.64263556  0.17178152  0.20748389     0.10100
S692        S  0.71359233  0.10008380  0.08185954    -0.33300
S693        S  0.60784759  0.18740616  0.25760010    -0.33300
H694        H  0.63594972  0.22136617  0.27418118     0.28100
H695        H  0.68614329  0.06036454  0.08181060     0.28100
H696        H  0.74347493  0.16496710  0.14517936     0.18700
H697        H  0.58110492  0.13559561  0.18572587     0.18700
C698        C  0.87050613  0.36606953  0.35944312    -0.07100
C699        C  0.83592011  0.38611198  0.33154494    -0.18300
C700        C  0.80627698  0.35961293  0.30281681     0.10100
C701        C  0.80938646  0.31074286  0.30304840    -0.07100
C702        C  0.84696451  0.29238975  0.32920325    -0.18300
C703        C  0.87701844  0.31859144  0.35660942     0.10100
S704        S  0.76626531  0.39057447  0.26635584    -0.33300
S705        S  0.92545949  0.28913382  0.38389369    -0.33300
H706        H  0.95827639  0.32289075  0.37224584     0.28100
H707        H  0.78485984  0.43462411  0.27224871     0.28100
H708        H  0.83198698  0.42293253  0.33263165     0.18700
H709        H  0.85683738  0.25744198  0.32646152     0.18700
C710        C  0.86928118  0.13516974  0.36525272    -0.07100
C711        C  0.83296940  0.15987369  0.38612268    -0.18300
C712        C  0.80502547  0.19037923  0.35959577     0.10100
C713        C  0.81068371  0.19366471  0.30970110    -0.07100
C714        C  0.85135514  0.17332155  0.29171957    -0.18300
C715        C  0.87957129  0.14377901  0.31774556     0.10100
S716        S  0.77130463  0.23147747  0.39207758    -0.33300
S717        S  0.93081661  0.12176561  0.28894469    -0.33300
H718        H  0.96076425  0.13046760  0.32722907     0.28100
H719        H  0.77332479  0.20962962  0.43621755     0.28100
H720        H  0.82800746  0.15678195  0.42379306     0.18700
H721        H  0.86384419  0.18220008  0.25760207     0.18700
C722        C  0.68766553  0.30552633  0.30693463    -0.07100
C723        C  0.70787403  0.32486495  0.34797729    -0.18300
C724        C  0.68415807  0.35516606  0.37787839     0.10100
C725        C  0.63772837  0.36671955  0.36808819    -0.07100
C726        C  0.61606453  0.34703005  0.32940733    -0.18300
C727        C  0.63880138  0.31660795  0.29907209     0.10100
S728        S  0.71537411  0.37779828  0.42787125    -0.33300
S729        S  0.59850935  0.29977413  0.25266461    -0.33300
H730        H  0.62473279  0.27169474  0.22419143     0.28100
H731        H  0.68914595  0.41818487  0.43237862     0.28100
H732        H  0.74263200  0.31585910  0.35824394     0.18700
H733        H  0.57980142  0.35564302  0.32296054     0.18700
C734        C  0.80785101  0.31013087  0.19360089    -0.07100
C735        C  0.78930325  0.34519979  0.16444878    -0.18300
C736        C  0.81688156  0.37433239  0.13738733     0.10100
C737        C  0.86513768  0.36826620  0.13717431    -0.07100
C738        C  0.88498023  0.33519619  0.16653740    -0.18300
C739        C  0.85746632  0.30668224  0.19502739     0.10100
S740        S  0.78785609  0.41722059  0.10198546    -0.33300
S741        S  0.88769877  0.26425236  0.22917903    -0.33300
H742        H  0.93309818  0.28123727  0.22389552     0.28100
H743        H  0.82329449  0.45009281  0.10457736     0.28100
H744        H  0.75320660  0.35067118  0.16050101     0.18700
H745        H  0.92244877  0.33123621  0.16632564     0.18700
N746        N  0.94507454  0.44488200  0.58798678    -0.07100
N747        N  0.91491180  0.43525713  0.62143665    -0.59300
N748        N  0.55191632  0.41278275  0.55602344    -0.06800
N749        N  0.58424005  0.38197269  0.56481005    -0.61400
N750        N  0.55112303  0.44368853  0.58947380    -0.06400
N751        N  0.58265243  0.43437086  0.62191403    -0.59200
N752        N  0.94516079  0.41283766  0.55543714    -0.06100
N753        N  0.91492003  0.38055492  0.56639094    -0.61700
C754        C  0.89581061  0.39556714  0.60714023     0.95000
C755        C  0.60351339  0.39603766  0.60585813     0.94800
N756        N  0.55606383  0.44498241  0.91355087    -0.07300
N757        N  0.58873551  0.43550624  0.88237026    -0.59800
N758        N  0.94787859  0.41422422  0.94271876    -0.05400
N759        N  0.91801096  0.38185456  0.93153424    -0.61100
N760        N  0.94889578  0.44584572  0.90964362    -0.07400
N761        N  0.91958784  0.43538409  0.87526033    -0.60100
N762        N  0.55486000  0.41301263  0.94622748    -0.05100
N763        N  0.58691306  0.38148012  0.93803848    -0.61200
Mn764      Mn  0.49991013  0.41200990  0.49988046     1.18400
C765        C  0.60851547  0.39640061  0.89865134     0.97100
C766        C  0.90053129  0.39537328  0.88946652     0.97800
N767        N  0.55280141  0.04984434  0.59100835    -0.07400
N768        N  0.58457167  0.05652999  0.62385158    -0.63700
N769        N  0.94771082  0.08422844  0.55640117    -0.06200
N770        N  0.91684595  0.11634440  0.56558192    -0.64400
N771        N  0.94669344  0.05235527  0.58899282    -0.06900
N772        N  0.91536806  0.06232746  0.62121138    -0.63900
N773        N  0.55462091  0.08205891  0.55874856    -0.05800
N774        N  0.58803797  0.11137744  0.56892317    -0.64600
Mn775      Mn  0.49871315  0.99775010  0.59029012     1.10700
C776        C  0.60688925  0.09441450  0.60913160     0.98300
C777        C  0.89651873  0.10209922  0.60592670     0.98400
N778        N  0.94912442  0.05478173  0.91211823    -0.06900
N779        N  0.91836010  0.06543383  0.87914915    -0.62300
N780        N  0.55572708  0.08464735  0.94828492    -0.06200
N781        N  0.58690467  0.11671344  0.94078986    -0.59000
N782        N  0.55635863  0.05422114  0.91424035    -0.07500
N783        N  0.58807126  0.06542781  0.88263854    -0.61800
N784        N  0.94894623  0.08595309  0.94556571    -0.06500
N785        N  0.91799934  0.11823162  0.93605649    -0.59000
Mn786      Mn  0.00269102  0.50004503  0.91062098     1.20200
Mn787      Mn  0.00171741  0.08538886  0.00221692     1.10100
Cl788      Cl  0.50051981  0.99886761  0.50052013    -0.87000
C789        C  0.89898636  0.10493176  0.89464278     0.95400
C790        C  0.60691596  0.10459919  0.89974049     0.95100
C791        C  0.72505847  0.22013142  0.77862858    -0.03500
C792        C  0.72028731  0.27442519  0.77633305    -0.03500
C793        C  0.71985523  0.27270159  0.72061250    -0.03500
C794        C  0.72238189  0.21860587  0.72326829    -0.03500
C795        C  0.77927133  0.22377405  0.77684972    -0.03500
C796        C  0.77751968  0.22265761  0.72092630    -0.03500
C797        C  0.77490122  0.27638761  0.72085434    -0.03500
C798        C  0.77555189  0.27763838  0.77581515    -0.03500
C799        C  0.64065389  0.13341425  0.87357696    -0.07100
C800        C  0.66758173  0.11292235  0.83865417    -0.18300
C801        C  0.69704445  0.13844628  0.80929810     0.10100
C802        C  0.70048398  0.18700564  0.81442152    -0.07100
C803        C  0.67549987  0.20611522  0.85242808    -0.18300
C804        C  0.64576782  0.18079448  0.88111834     0.10100
S805        S  0.72692590  0.10613920  0.76538838    -0.33300
S806        S  0.61351811  0.21251511  0.92458631    -0.33300
H807        H  0.57009267  0.19808863  0.90709699     0.28100
H808        H  0.69536100  0.06958989  0.76213659     0.28100
H809        H  0.66505353  0.07627760  0.83388944     0.18700
H810        H  0.67778810  0.24164076  0.86027363     0.18700
C811        C  0.69044433  0.30391136  0.68722509    -0.07100
C812        C  0.67954707  0.34819413  0.70366082    -0.18300
C813        C  0.65480360  0.38036744  0.67726633     0.10100
C814        C  0.63692985  0.36793659  0.63300941    -0.07100
C815        C  0.64796160  0.32493570  0.61518863    -0.18300
C816        C  0.67420894  0.29313704  0.64071568     0.10100
S817        S  0.64847200  0.43660385  0.70235155    -0.33300
S818        S  0.68561791  0.24194413  0.60842261    -0.33300
H819        H  0.64213803  0.23920568  0.58558977     0.28100
H820        H  0.66062413  0.45919317  0.66032830     0.28100
H821        H  0.68982586  0.35846691  0.73794372     0.18700
H822        H  0.63582264  0.31579867  0.58027741     0.18700
C823        C  0.86353189  0.13062626  0.63307028    -0.07100
C824        C  0.85537776  0.17529951  0.61759668    -0.18300
C825        C  0.82640483  0.20541784  0.64206626     0.10100
C826        C  0.80835081  0.19286660  0.68745786    -0.07100
C827        C  0.81456605  0.14670274  0.70002901    -0.18300
C828        C  0.84108840  0.11574771  0.67421045     0.10100
S829        S  0.80922983  0.25304905  0.60606672    -0.33300
S830        S  0.84441016  0.05810609  0.69652002    -0.33300
H831        H  0.83435355  0.03815815  0.65255179     0.28100
H832        H  0.76914285  0.26083870  0.63119382     0.28100
H833        H  0.87020175  0.18652599  0.58447943     0.18700
H834        H  0.80083060  0.13476975  0.73229062     0.18700
C835        C  0.69069882  0.18258562  0.69715565    -0.07100
C836        C  0.71017483  0.15750668  0.65905450    -0.18300
C837        C  0.68479143  0.12723568  0.63095994     0.10100
C838        C  0.63763916  0.12079116  0.63997824    -0.07100
C839        C  0.61770393  0.14195510  0.67862686    -0.18300
C840        C  0.64268878  0.17173186  0.70767006     0.10100
S841        S  0.71410649  0.10011168  0.58225662    -0.33300
S842        S  0.60765951  0.18789576  0.75741848    -0.33300
H843        H  0.63596717  0.22169782  0.77397661     0.28100
H844        H  0.68575969  0.06105451  0.58066736     0.28100
H845        H  0.74366319  0.16489175  0.64565145     0.18700
H846        H  0.58129532  0.13528811  0.68599277     0.18700
C847        C  0.87064370  0.36620169  0.85937503    -0.07100
C848        C  0.83608582  0.38615281  0.83136972    -0.18300
C849        C  0.80632197  0.35954129  0.80288394     0.10100
C850        C  0.80932352  0.31068594  0.80338100    -0.07100
C851        C  0.84675389  0.29234355  0.82978252    -0.18300
C852        C  0.87691853  0.31865982  0.85697309     0.10100
S853        S  0.76606923  0.39033124  0.76655629    -0.33300
S854        S  0.92513763  0.28919391  0.88465461    -0.33300
H855        H  0.95815530  0.32270295  0.87282910     0.28100
H856        H  0.78532458  0.43422344  0.77140374     0.28100
H857        H  0.83220383  0.42297856  0.83223857     0.18700
H858        H  0.85637964  0.25737484  0.82749577     0.18700
C859        C  0.86883556  0.13490221  0.86543545    -0.07100
C860        C  0.83223887  0.15927089  0.88623380    -0.18300
C861        C  0.80443613  0.18993143  0.85975908     0.10100
C862        C  0.81043422  0.19358944  0.80995300    -0.07100
C863        C  0.85131679  0.17356285  0.79210940    -0.18300
C864        C  0.87948159  0.14397168  0.81810444     0.10100
S865        S  0.77084505  0.23100749  0.89238332    -0.33300
S866        S  0.93110056  0.12250959  0.78954160    -0.33300
H867        H  0.96068491  0.13095899  0.82817335     0.28100
H868        H  0.76983313  0.20700125  0.93534713     0.28100
H869        H  0.82706957  0.15598637  0.92386120     0.18700
H870        H  0.86393193  0.18263609  0.75810442     0.18700
C871        C  0.68759446  0.30559511  0.80731184    -0.07100
C872        C  0.70784515  0.32501104  0.84833414    -0.18300
C873        C  0.68412067  0.35533234  0.87824855     0.10100
C874        C  0.63750442  0.36638085  0.86881119    -0.07100
C875        C  0.61577666  0.34650657  0.83029058    -0.18300
C876        C  0.63865445  0.31650790  0.79962830     0.10100
S877        S  0.71558849  0.37881344  0.92768039    -0.33300
S878        S  0.59839305  0.30018336  0.75299998    -0.33300
H879        H  0.62449870  0.27224821  0.72428400     0.28100
H880        H  0.68877951  0.41881914  0.93233294     0.28100
H881        H  0.74266385  0.31613538  0.85852374     0.18700
H882        H  0.57941251  0.35486549  0.82406872     0.18700
C883        C  0.80784500  0.31013253  0.69387840    -0.07100
C884        C  0.78931547  0.34524106  0.66475615    -0.18300
C885        C  0.81689680  0.37429151  0.63760296     0.10100
C886        C  0.86512634  0.36806842  0.63723442    -0.07100
C887        C  0.88496070  0.33495520  0.66654671    -0.18300
C888        C  0.85745673  0.30659292  0.69520442     0.10100
S889        S  0.78791688  0.41732819  0.60234078    -0.33300
S890        S  0.88769497  0.26438665  0.72963441    -0.33300
H891        H  0.93318890  0.28090579  0.72368573     0.28100
H892        H  0.82344416  0.45010931  0.60490255     0.28100
H893        H  0.75323412  0.35088609  0.66099963     0.18700
H894        H  0.92242033  0.33092515  0.66625070     0.18700
N895        N  0.94511476  0.94490664  0.08817060    -0.07100
N896        N  0.91477427  0.93533728  0.12147326    -0.59300
N897        N  0.55158682  0.91298069  0.05629661    -0.06800
N898        N  0.58391243  0.88219856  0.06512249    -0.61400
N899        N  0.55070629  0.94382275  0.08981350    -0.06400
N900        N  0.58215717  0.93447075  0.12234962    -0.59200
N901        N  0.94529512  0.91288280  0.05560036    -0.06100
N902        N  0.91492031  0.88066817  0.06639455    -0.61700
C903        C  0.89563829  0.89570329  0.10705973     0.95000
C904        C  0.60307381  0.89617718  0.10625587     0.94800
N905        N  0.55624183  0.94537735  0.41296383    -0.07300
N906        N  0.58882268  0.93594329  0.38166560    -0.59800
N907        N  0.94792946  0.91378817  0.44304025    -0.05400
N908        N  0.91802822  0.88139639  0.43200290    -0.61100
N909        N  0.94876602  0.94544898  0.41000939    -0.07400
N910        N  0.91927284  0.93499635  0.37579039    -0.60100
N911        N  0.55522751  0.91345765  0.44569587    -0.05100
N912        N  0.58735797  0.88201955  0.43745070    -0.61200
Mn913      Mn  0.49967018  0.91215628  0.99993617     1.18400
C914        C  0.60877473  0.89692202  0.39795301     0.97100
C915        C  0.90031135  0.89494887  0.39005244     0.97800
N916        N  0.55261522  0.54955081  0.09114742    -0.07400
N917        N  0.58453678  0.55614340  0.12386723    -0.63700
N918        N  0.94784466  0.58439955  0.05626240    -0.06200
N919        N  0.91683404  0.61639182  0.06543314    -0.64400
N920        N  0.94690607  0.55253248  0.08887119    -0.06900
N921        N  0.91553058  0.56238927  0.12108429    -0.63900
N922        N  0.55448079  0.58170950  0.05882865    -0.05800
N923        N  0.58807352  0.61088404  0.06884178    -0.64600
Mn924      Mn  0.49839338  0.49756232  0.09055331     1.10700
C925        C  0.60700139  0.59390151  0.10900600     0.98300
C926        C  0.89652708  0.60207679  0.10578095     0.98400
N927        N  0.94909403  0.55472204  0.41196116    -0.06900
N928        N  0.91834788  0.56543893  0.37901036    -0.62300
N929        N  0.55582519  0.58469815  0.44815350    -0.06200
N930        N  0.58696928  0.61679173  0.44060903    -0.59000
N931        N  0.55642048  0.55425270  0.41411827    -0.07500
N932        N  0.58809295  0.56547166  0.38248214    -0.61800
N933        N  0.94902097  0.58590627  0.44538815    -0.06500
N934        N  0.91819999  0.61828774  0.43587094    -0.59000
Mn935      Mn  0.00247079  0.99979974  0.41088663     1.20200
Mn936      Mn  0.00177563  0.58529376  0.50192861     1.10100
Cl937      Cl  0.50023527  0.49858425  0.00079874    -0.87000
C938        C  0.89913747  0.60501902  0.39447529     0.95400
C939        C  0.60692778  0.60466503  0.39953646     0.95100
C940        C  0.72503376  0.72000715  0.27831463    -0.03500
C941        C  0.72013754  0.77428139  0.27601909    -0.03500
C942        C  0.71973901  0.77256702  0.22032152    -0.03500
C943        C  0.72237916  0.71849447  0.22293982    -0.03500
C944        C  0.77924561  0.72374400  0.27659954    -0.03500
C945        C  0.77748754  0.72261223  0.22067593    -0.03500
C946        C  0.77476475  0.77635902  0.22057656    -0.03500
C947        C  0.77543119  0.77762860  0.27554680    -0.03500
C948        C  0.64062017  0.63345675  0.37331019    -0.07100
C949        C  0.66755631  0.61291173  0.33842429    -0.18300
C950        C  0.69687568  0.63840882  0.30892417     0.10100
C951        C  0.70044954  0.68694074  0.31409782    -0.07100
C952        C  0.67548533  0.70610405  0.35208174    -0.18300
C953        C  0.64560247  0.68087197  0.38067655     0.10100
S954        S  0.72615200  0.60604069  0.26464944    -0.33300
S955        S  0.61277567  0.71278002  0.42355826    -0.33300
H956        H  0.56959636  0.69776533  0.40596883     0.28100
H957        H  0.69286843  0.57111218  0.26007070     0.28100
H958        H  0.66505562  0.57625965  0.33365937     0.18700
H959        H  0.67783103  0.74161083  0.35994709     0.18700
C960        C  0.69021474  0.80381503  0.18711689    -0.07100
C961        C  0.67952795  0.84811601  0.20363744    -0.18300
C962        C  0.65469419  0.88037270  0.17745300     0.10100
C963        C  0.63643207  0.86796496  0.13335519    -0.07100
C964        C  0.64712442  0.82488080  0.11551112    -0.18300
C965        C  0.67356691  0.79304905  0.14076498     0.10100
S966        S  0.64884267  0.93665394  0.20256548    -0.33300
S967        S  0.68489409  0.74196527  0.10823039    -0.33300
H968        H  0.64150430  0.73939036  0.08519303     0.28100
H969        H  0.66046778  0.95919807  0.16036788     0.28100
H970        H  0.69010929  0.85836355  0.23779519     0.18700
H971        H  0.63467169  0.81574985  0.08071916     0.18700
C972        C  0.86336215  0.63046648  0.13288433    -0.07100
C973        C  0.85509659  0.67509818  0.11735982    -0.18300
C974        C  0.82618118  0.70522364  0.14186027     0.10100
C975        C  0.80819294  0.69269646  0.18726114    -0.07100
C976        C  0.81432700  0.64650793  0.19984327    -0.18300
C977        C  0.84090699  0.61555958  0.17403236     0.10100
S978        S  0.80896428  0.75289312  0.10593851    -0.33300
S979        S  0.84434978  0.55792864  0.19636892    -0.33300
H980        H  0.83470705  0.53789815  0.15234879     0.28100
H981        H  0.76871971  0.76050586  0.13091554     0.28100
H982        H  0.86985949  0.68632245  0.08421994     0.18700
H983        H  0.80053398  0.63458246  0.23212604     0.18700
C984        C  0.69077680  0.68251549  0.19664947    -0.07100
C985        C  0.71023824  0.65748884  0.15848000    -0.18300
C986        C  0.68490802  0.62699380  0.13056325     0.10100
C987        C  0.63781496  0.62032372  0.13977798    -0.07100
C988        C  0.61789131  0.64158749  0.17837685    -0.18300
C989        C  0.64281172  0.67161520  0.20719849     0.10100
S990        S  0.71419301  0.59977658  0.08189525    -0.33300
S991        S  0.60779065  0.68824606  0.25674917    -0.33300
H992        H  0.63633659  0.72198980  0.27306133     0.28100
H993        H  0.68616537  0.56047527  0.08085552     0.28100
H994        H  0.74364799  0.66502367  0.14494260     0.18700
H995        H  0.58151256  0.63486863  0.18583710     0.18700
C996        C  0.87024399  0.86583616  0.36005141    -0.07100
C997        C  0.83562055  0.88592888  0.33223485    -0.18300
C998        C  0.80592438  0.85950329  0.30345194     0.10100
C999        C  0.80921581  0.81064811  0.30327209    -0.07100
C1000       C  0.84681145  0.79222596  0.32938286    -0.18300
C1001       C  0.87664457  0.81832682  0.35719463     0.10100
S1002       S  0.76575065  0.89045560  0.26715303    -0.33300
S1003       S  0.92456540  0.78863055  0.38514450    -0.33300
H1004       H  0.95779548  0.82197138  0.37344329     0.28100
H1005       H  0.78018757  0.93517721  0.27771830     0.28100
H1006       H  0.83183584  0.92275042  0.33335079     0.18700
H1007       H  0.85677366  0.75740107  0.32643651     0.18700
C1008       C  0.86905576  0.63504097  0.36526873    -0.07100
C1009       C  0.83262380  0.65959137  0.38610405    -0.18300
C1010       C  0.80470862  0.69012719  0.35959073     0.10100
C1011       C  0.81052014  0.69361231  0.30973551    -0.07100
C1012       C  0.85132100  0.67342777  0.29183325    -0.18300
C1013       C  0.87952084  0.64386074  0.31784930     0.10100
S1014       S  0.77091723  0.73106707  0.39216241    -0.33300
S1015       S  0.93091541  0.62202995  0.28915015    -0.33300
H1016       H  0.96070894  0.63030528  0.32765842     0.28100
H1017       H  0.77092682  0.70772314  0.43552824     0.28100
H1018       H  0.82757735  0.65642328  0.42376055     0.18700
H1019       H  0.86387295  0.68238127  0.25777149     0.18700
C1020       C  0.68732061  0.80544711  0.30688905    -0.07100
C1021       C  0.70759535  0.82475306  0.34791776    -0.18300
C1022       C  0.68409865  0.85534010  0.37767605     0.10100
C1023       C  0.63763554  0.86684266  0.36806309    -0.07100
C1024       C  0.61579129  0.84703002  0.32957608    -0.18300
C1025       C  0.63842655  0.81666707  0.29910018     0.10100
S1026       S  0.71573317  0.87856775  0.42711147    -0.33300
S1027       S  0.59784067  0.80031180  0.25273404    -0.33300
H1028       H  0.62371596  0.77261316  0.22357742     0.28100
H1029       H  0.68913255  0.91868668  0.43189023     0.28100
H1030       H  0.74230264  0.81559870  0.35821516     0.18700
H1031       H  0.57949816  0.85565480  0.32330856     0.18700
C1032       C  0.80758665  0.81015013  0.19358543    -0.07100
C1033       C  0.78904434  0.84532977  0.16455953    -0.18300
C1034       C  0.81665536  0.87445206  0.13748915     0.10100
C1035       C  0.86489234  0.86818365  0.13707955    -0.07100
C1036       C  0.88468691  0.83494229  0.16625575    -0.18300
C1037       C  0.85716828  0.80659748  0.19486581     0.10100
S1038       S  0.78772612  0.91756981  0.10230138    -0.33300
S1039       S  0.88749991  0.76409450  0.22872081    -0.33300
H1040       H  0.93152857  0.78495179  0.22848303     0.28100
H1041       H  0.82320979  0.95037406  0.10519581     0.28100
H1042       H  0.75295660  0.85092982  0.16075251     0.18700
H1043       H  0.92212680  0.83063531  0.16584443     0.18700
N1044       N  0.94499327  0.94489579  0.58797095    -0.07100
N1045       N  0.91457010  0.93545632  0.62122005    -0.59300
N1046       N  0.55190566  0.91287016  0.55607690    -0.06800
N1047       N  0.58428896  0.88211087  0.56488543    -0.61400
N1048       N  0.55102191  0.94374362  0.58956003    -0.06400
N1049       N  0.58254699  0.93445345  0.62203148    -0.59200
N1050       N  0.94517608  0.91282330  0.55545865    -0.06100
N1051       N  0.91472911  0.88068068  0.56625655    -0.61700
C1052       C  0.89538610  0.89584546  0.60684170     0.95000
C1053       C  0.60350194  0.89615926  0.60598123     0.94800
N1054       N  0.55591021  0.94516584  0.91306584    -0.07300
N1055       N  0.58843606  0.93570700  0.88171922    -0.59800
N1056       N  0.94818564  0.91388293  0.94303998    -0.05400
N1057       N  0.91857455  0.88132361  0.93174138    -0.61100
N1058       N  0.94902900  0.94558235  0.91004429    -0.07400
N1059       N  0.91983886  0.93501956  0.87561417    -0.60100
N1060       N  0.55491867  0.91326105  0.94581558    -0.05100
N1061       N  0.58701729  0.88179081  0.93752351    -0.61200
Mn1062     Mn  0.49996489  0.91218061  0.49975063     1.18400
C1063       C  0.60838308  0.89667768  0.89797777     0.97100
C1064       C  0.90105492  0.89485677  0.88970009     0.97800
N1065       N  0.55306351  0.54978440  0.59087049    -0.07400
N1066       N  0.58478819  0.55650715  0.62374550    -0.63700
N1067       N  0.94783637  0.58436195  0.55615732    -0.06200
N1068       N  0.91697856  0.61647947  0.56537929    -0.64400
N1069       N  0.94682101  0.55247076  0.58873518    -0.06900
N1070       N  0.91552407  0.56243598  0.62097855    -0.63900
N1071       N  0.55488449  0.58199261  0.55860163    -0.05800
N1072       N  0.58825997  0.61135255  0.56881535    -0.64600
Mn1073     Mn  0.49892564  0.49773545  0.59030345     1.10700
C1074       C  0.60708541  0.59440565  0.60905191     0.98300
C1075       C  0.89667379  0.60221568  0.60573438     0.98400
N1076       N  0.94957879  0.55501747  0.91173382    -0.06900
N1077       N  0.91919828  0.56595152  0.87851787    -0.62300
N1078       N  0.55567393  0.58471353  0.94849635    -0.06200
N1079       N  0.58677525  0.61689582  0.94110587    -0.59000
N1080       N  0.55649332  0.55425658  0.91448073    -0.07500
N1081       N  0.58831840  0.56555843  0.88300850    -0.61800
N1082       N  0.94934352  0.58610036  0.94527331    -0.06500
N1083       N  0.91872675  0.61860893  0.93558349    -0.59000
Mn1084     Mn  0.00255208  0.99994926  0.91096130     1.20200
Mn1085     Mn  0.00191717  0.58541672  0.00204187     1.10100
Cl1086     Cl  0.50055381  0.49872550  0.50056644    -0.87000
C1087       C  0.90000704  0.60552566  0.89397147     0.95400
C1088       C  0.60699477  0.60481691  0.90014893     0.95100
C1089       C  0.72529979  0.72015486  0.77873194    -0.03500
C1090       C  0.72050588  0.77443512  0.77632384    -0.03500
C1091       C  0.72001347  0.77266623  0.72062336    -0.03500
C1092       C  0.72258510  0.71854116  0.72333915    -0.03500
C1093       C  0.77951533  0.72384297  0.77681338    -0.03500
C1094       C  0.77771152  0.72268260  0.72090330    -0.03500
C1095       C  0.77506344  0.77641469  0.72081563    -0.03500
C1096       C  0.77578175  0.77769833  0.77576473    -0.03500
C1097       C  0.64087739  0.63367664  0.87413958    -0.07100
C1098       C  0.66839483  0.61307102  0.83976448    -0.18300
C1099       C  0.69766649  0.63858848  0.81017776     0.10100
C1100       C  0.70072787  0.68720962  0.81480897    -0.07100
C1101       C  0.67541746  0.70644971  0.85257130    -0.18300
C1102       C  0.64548775  0.68119184  0.88116819     0.10100
S1103       S  0.72756912  0.60623196  0.76635075    -0.33300
S1104       S  0.61214206  0.71314284  0.92361117    -0.33300
H1105       H  0.56918561  0.69766485  0.90589757     0.28100
H1106       H  0.69634084  0.56936588  0.76360691     0.28100
H1107       H  0.66627959  0.57634932  0.83542642     0.18700
H1108       H  0.67744637  0.74202545  0.86018728     0.18700
C1109       C  0.69052831  0.80395635  0.68733882    -0.07100
C1110       C  0.67974190  0.84829901  0.70374235    -0.18300
C1111       C  0.65484505  0.88045430  0.67743805     0.10100
C1112       C  0.63694305  0.86804932  0.63317054    -0.07100
C1113       C  0.64795014  0.82502556  0.61536391    -0.18300
C1114       C  0.67412716  0.79316939  0.64091030     0.10100
S1115       S  0.64820914  0.93657449  0.70273846    -0.33300
S1116       S  0.68516525  0.74178499  0.60882588    -0.33300
H1117       H  0.64169438  0.73929343  0.58593814     0.28100
H1118       H  0.66024978  0.95939284  0.66081740     0.28100
H1119       H  0.69025386  0.85864445  0.73791956     0.18700
H1120       H  0.63576414  0.81587433  0.58048078     0.18700
C1121       C  0.86367339  0.63069938  0.63291624    -0.07100
C1122       C  0.85544262  0.67536811  0.61745454    -0.18300
C1123       C  0.82650813  0.70547940  0.64199095     0.10100
C1124       C  0.80848863  0.69288746  0.68737708    -0.07100
C1125       C  0.81471654  0.64670191  0.69990170    -0.18300
C1126       C  0.84129772  0.61578773  0.67408911     0.10100
S1127       S  0.80934996  0.75321132  0.60611818    -0.33300
S1128       S  0.84486538  0.55819039  0.69652061    -0.33300
H1129       H  0.83480656  0.53810055  0.65262375     0.28100
H1130       H  0.76904241  0.76076315  0.63101519     0.28100
H1131       H  0.87021324  0.68661315  0.58432122     0.18700
H1132       H  0.80100294  0.63474708  0.73215574     0.18700
C1133       C  0.69101692  0.68235810  0.69726241    -0.07100
C1134       C  0.71045924  0.65728158  0.65910606    -0.18300
C1135       C  0.68501790  0.62704217  0.63100007     0.10100
C1136       C  0.63783973  0.62075085  0.63993864    -0.07100
C1137       C  0.61794950  0.64188010  0.67862805    -0.18300
C1138       C  0.64301431  0.67151164  0.70776480     0.10100
S1139       S  0.71420787  0.59971188  0.58234813    -0.33300
S1140       S  0.60810990  0.68753969  0.75763025    -0.33300
H1141       H  0.63626119  0.72159010  0.77391762     0.28100
H1142       H  0.68638678  0.56025049  0.58181747     0.28100
H1143       H  0.74391739  0.66465047  0.64562978     0.18700
H1144       H  0.58152726  0.63527313  0.68598013     0.18700
C1145       C  0.87107787  0.86580174  0.85963551    -0.07100
C1146       C  0.83643773  0.88592451  0.83187196    -0.18300
C1147       C  0.80638791  0.85948122  0.80352144     0.10100
C1148       C  0.80964980  0.81063898  0.80340409    -0.07100
C1149       C  0.84731626  0.79218958  0.82940660    -0.18300
C1150       C  0.87742089  0.81830195  0.85686522     0.10100
S1151       S  0.76623735  0.89044634  0.76720676    -0.33300
S1152       S  0.92570165  0.78867870  0.88428524    -0.33300
H1153       H  0.95868583  0.82230102  0.87271886     0.28100
H1154       H  0.77266855  0.93428773  0.78637817     0.28100
H1155       H  0.83306749  0.92279214  0.83250805     0.18700
H1156       H  0.85721430  0.75735630  0.82655581     0.18700
C1157       C  0.86983982  0.63548014  0.86488246    -0.07100
C1158       C  0.83333419  0.65977594  0.88589667    -0.18300
C1159       C  0.80516994  0.69017380  0.85954763     0.10100
C1160       C  0.81088130  0.69375921  0.80971897    -0.07100
C1161       C  0.85174057  0.67388556  0.79163372    -0.18300
C1162       C  0.88013153  0.64438933  0.81744457     0.10100
S1163       S  0.77114936  0.73085673  0.89224559    -0.33300
S1164       S  0.93141447  0.62272607  0.78840575    -0.33300
H1165       H  0.96135733  0.63076486  0.82684017     0.28100
H1166       H  0.77149569  0.70748946  0.93559931     0.28100
H1167       H  0.82838947  0.65648830  0.92355392     0.18700
H1168       H  0.86416492  0.68301964  0.75758214     0.18700
C1169       C  0.68769793  0.80565540  0.80707205    -0.07100
C1170       C  0.70780932  0.82505833  0.84814043    -0.18300
C1171       C  0.68401035  0.85544732  0.87791076     0.10100
C1172       C  0.63750461  0.86674131  0.86815229    -0.07100
C1173       C  0.61593924  0.84696744  0.82947744    -0.18300
C1174       C  0.63881203  0.81667090  0.79911880     0.10100
S1175       S  0.71528136  0.87865282  0.92759664    -0.33300
S1176       S  0.59855729  0.79996477  0.75260322    -0.33300
H1177       H  0.62461007  0.77183835  0.72402004     0.28100
H1178       H  0.68825148  0.91845202  0.93271183     0.28100
H1179       H  0.74256523  0.81605138  0.85848617     0.18700
H1180       H  0.57965006  0.85547135  0.82301822     0.18700
C1181       C  0.80788354  0.81025821  0.69383679    -0.07100
C1182       C  0.78920193  0.84538915  0.66486889    -0.18300
C1183       C  0.81658279  0.87453153  0.63764727     0.10100
C1184       C  0.86481664  0.86834417  0.63701188    -0.07100
C1185       C  0.88482925  0.83527405  0.66624467    -0.18300
C1186       C  0.85750617  0.80688465  0.69502072     0.10100
S1187       S  0.78722833  0.91753474  0.60264678    -0.33300
S1188       S  0.88811742  0.76467655  0.72903753    -0.33300
H1189       H  0.93261429  0.78443558  0.72686580     0.28100
H1190       H  0.82305373  0.95005203  0.60396155     0.28100
H1191       H  0.75314000  0.85096781  0.66118070     0.18700
H1192       H  0.92228637  0.83117333  0.66573519     0.18700
loop_ 
_geom_bond_atom_site_label_1 
_geom_bond_atom_site_label_2 
_geom_bond_distance 
_geom_bond_site_symmetry_2 
_ccdc_geom_bond_type 
N1            N2   1.319       .  A
N1            N7   1.317       .  A
N1         Mn924   2.187       .  S
N2            C9   1.348       .  A
N3            N5   1.312       .  A
N3            N4   1.315       .  A
N3          Mn19   2.184   1_454  S
N4           C10   1.354       .  A
N5            N6   1.317       .  A
N5         Mn328   2.173   1_455  S
N6           C10   1.350       .  A
N7            N8   1.323       .  A
N7         Mn615   2.221       .  S
N8            C9   1.355       .  A
C9          C141   1.469       .  S
C10          C69   1.477       .  S
N11          N17   1.317       .  A
N11          N12   1.322       .  A
N11        Mn637   2.216       .  S
N12          C20   1.355       .  A
N13          N14   1.318       .  A
N13          N15   1.317       .  A
N13        Mn764   2.197       .  S
N14          C21   1.351       .  A
N15          N16   1.324       .  A
N15         Mn41   2.220       .  S
N16          C21   1.356       .  A
N17          N18   1.323       .  A
N17        Mn168   2.212   1_455  S
N18          C20   1.353       .  A
Mn19        N603   2.224   1_556  S
Mn19        N758   2.199       .  S
Mn19        N166   2.213   1_655  S
Mn19       Cl341   2.535   1_656  S
C20         C129   1.478       .  S
C21         C102   1.483       .  S
N22          N23   1.317       .  A
N22          N28   1.314       .  A
N22         Mn30   2.179   1_445  S
N23          C31   1.348       .  A
N24          N26   1.313       .  A
N24          N25   1.317       .  A
N24        Mn191   2.189       .  S
N25          C32   1.353       .  A
N26          N27   1.318       .  A
N26        Mn626   2.184   1_545  S
N27          C32   1.352       .  A
N28          N29   1.321       .  A
N28        Mn787   2.209       .  S
N29          C31   1.354       .  A
Mn30        N895   2.186       .  S
Mn30        N303   2.176   1_655  S
Mn30        N622   2.184   1_565  S
Mn30        Cl43   2.549   1_655  S
C31          C93   1.464       .  S
C32          C78   1.480       .  S
N33          N34   1.321       .  A
N33          N39   1.317       .  A
N33        Mn339   2.213       .  S
N34          C44   1.355       .  A
N35          N36   1.317       .  A
N35          N37   1.315       .  A
N35        Mn638   2.182       .  S
N36          C45   1.348       .  A
N37          N38   1.323       .  A
N37        Mn935   2.221   1_545  S
N38          C45   1.359       .  A
N39          N40   1.321       .  A
N39         Mn42   2.204       .  S
N40          C44   1.352       .  A
Mn41        N607   2.216       .  S
Mn41        N331   2.214       .  S
Mn41        N931   2.220       .  S
Mn41      Cl1086   2.551       .  S
Mn42        N173   2.191       .  S
Mn42        N773   2.207       .  S
Mn42        N631   2.184       .  S
Mn42       Cl788   2.535   1_545  S
Cl43       Mn317   2.536   1_455  S
Cl43      Mn1084   2.551   1_554  S
Cl43       Mn787   2.535   1_565  S
C44         C114   1.480       .  S
C45          C54   1.487       .  S
C46          C47   1.594       .  S
C46          C49   1.574       .  S
C46          C50   1.563       .  S
C46          C57   1.574       .  S
C47          C48   1.582       .  S
C47          C53   1.592       .  S
C47         C126   1.576       .  S
C48          C49   1.586       .  S
C48          C52   1.586       .  S
C48          C66   1.561       .  S
C49          C51   1.591       .  S
C49          C90   1.579       .  S
C50          C51   1.588       .  S
C50          C53   1.579       .  S
C50         C117   1.566       .  S
C51          C52   1.572       .  S
C51          C81   1.565       .  S
C52          C53   1.560       .  S
C52         C138   1.569       .  S
C53         C105   1.579       .  S
C54          C55   1.394       .  A
C54          C59   1.411       .  A
C55          C56   1.405       .  A
C55          H64   1.083       .  S
C56          C57   1.431       .  A
C56          S60   1.785       .  S
C57          C58   1.413       .  A
C58          C59   1.397       .  A
C58          H65   1.065       .  S
C59          S61   1.802       .  S
S60          H63   1.408       .  S
S61          H62   1.408       .  S
C66          C67   1.413       .  A
C66          C71   1.434       .  A
C67          C68   1.394       .  A
C67          H76   1.060       .  S
C68          C69   1.405       .  A
C68          S72   1.803       .  S
C69          C70   1.392       .  A
C70          C71   1.395       .  A
C70          H77   1.083       .  S
C71          S73   1.786       .  S
S72          H75   1.408       .  S
S73          H74   1.408       .  S
C78          C79   1.397       .  A
C78          C83   1.405       .  A
C79          C80   1.398       .  A
C79          H88   1.084       .  S
C80          C81   1.438       .  A
C80          S84   1.793       .  S
C81          C82   1.406       .  A
C82          C83   1.392       .  A
C82          H89   1.058       .  S
C83          S85   1.802       .  S
S84          H87   1.376       .  S
S85          H86   1.408       .  S
C90          C91   1.423       .  A
C90          C95   1.449       .  A
C91          C92   1.398       .  A
C91         H100   1.059       .  S
C92          C93   1.393       .  A
C92          S96   1.805       .  S
C93          C94   1.385       .  A
C94          C95   1.398       .  A
C94         H101   1.086       .  S
C95          S97   1.800       .  S
S96          H99   1.406       .  S
S97          H98   1.365       .  S
C102        C103   1.396       .  A
C102        C107   1.403       .  A
C103        C104   1.412       .  A
C103        H112   1.083       .  S
C104        C105   1.431       .  A
C104        S108   1.787       .  S
C105        C106   1.413       .  A
C106        C107   1.394       .  A
C106        H113   1.058       .  S
C107        S109   1.806       .  S
S108        H111   1.406       .  S
S109        H110   1.408       .  S
C114        C115   1.401       .  A
C114        C119   1.403       .  A
C115        C116   1.412       .  A
C115        H124   1.083       .  S
C116        C117   1.429       .  A
C116        S120   1.798       .  S
C117        C118   1.408       .  A
C118        C119   1.392       .  A
C118        H125   1.065       .  S
C119        S121   1.805       .  S
S120        H123   1.406       .  S
S121        H122   1.407       .  S
C126        C127   1.419       .  A
C126        C131   1.457       .  A
C127        C128   1.405       .  A
C127        H136   1.072       .  S
C128        C129   1.402       .  A
C128        S132   1.804       .  S
C129        C130   1.386       .  A
C130        C131   1.400       .  A
C130        H137   1.086       .  S
C131        S133   1.820       .  S
S132        H135   1.405       .  S
S133        H134   1.377       .  S
C138        C139   1.417       .  A
C138        C143   1.429       .  A
C139        C140   1.396       .  A
C139        H148   1.054       .  S
C140        C141   1.397       .  A
C140        S144   1.806       .  S
C141        C142   1.394       .  A
C142        C143   1.407       .  A
C142        H149   1.083       .  S
C143        S145   1.792       .  S
S144        H147   1.405       .  S
S145        H146   1.407       .  S
N150        N151   1.319       .  A
N150        N156   1.317       .  A
N150      Mn1073   2.186       .  S
N151        C158   1.348       .  A
N152        N154   1.312       .  A
N152        N153   1.315       .  A
N152       Mn168   2.184   1_455  S
N153        C159   1.354       .  A
N154        N155   1.317       .  A
N154       Mn477   2.174   1_455  S
N155        C159   1.350       .  A
N156        N157   1.323       .  A
N156       Mn764   2.224       .  S
N157        C158   1.355       .  A
C158        C290   1.471       .  S
C159        C218   1.476       .  S
N160        N166   1.316       .  A
N160        N161   1.322       .  A
N160       Mn786   2.216       .  S
N161        C169   1.355       .  A
N162        N163   1.318       .  A
N162        N164   1.317       .  A
N162       Mn615   2.196   1_556  S
N163        C170   1.351       .  A
N164        N165   1.324       .  A
N164       Mn190   2.221       .  S
N165        C170   1.356       .  A
N166        N167   1.323       .  A
N167        C169   1.353       .  A
Mn168       N752   2.222       .  S
Mn168       N609   2.198       .  S
Mn168      Cl490   2.536   1_655  S
C169        C278   1.479       .  S
C170        C251   1.482       .  S
N171        N172   1.318       .  A
N171        N177   1.314       .  A
N171       Mn179   2.180   1_445  S
N172        C180   1.349       .  A
N173        N175   1.313       .  A
N173        N174   1.317       .  A
N174        C181   1.354       .  A
N175        N176   1.318       .  A
N175       Mn775   2.185   1_545  S
N176        C181   1.352       .  A
N177        N178   1.321       .  A
N177       Mn638   2.208       .  S
N178        C180   1.354       .  A
Mn179      N1044   2.184       .  S
Mn179       N452   2.174   1_655  S
Mn179       N771   2.183   1_565  S
Mn179      Cl192   2.548   1_655  S
C180        C242   1.464       .  S
C181        C227   1.481       .  S
N182        N183   1.320       .  A
N182        N188   1.317       .  A
N182       Mn488   2.213       .  S
N183        C193   1.355       .  A
N184        N185   1.317       .  A
N184        N186   1.315       .  A
N184       Mn787   2.184   1_556  S
N185        C194   1.349       .  A
N186        N187   1.323       .  A
N186      Mn1084   2.218   1_545  S
N187        C194   1.358       .  A
N188        N189   1.321       .  A
N188       Mn191   2.203   1_556  S
N189        C193   1.352       .  A
Mn190       N756   2.216       .  S
Mn190       N480   2.215       .  S
Mn190      N1080   2.223       .  S
Mn190      Cl937   2.551   1_556  S
Mn191       N624   2.205       .  S
Mn191       N780   2.182   1_554  S
Mn191      Cl639   2.534   1_545  S
Cl192      Mn466   2.536   1_455  S
Cl192      Mn935   2.551       .  S
Cl192      Mn638   2.534   1_565  S
C193        C263   1.479       .  S
C194        C203   1.488       .  S
C195        C196   1.596       .  S
C195        C198   1.573       .  S
C195        C199   1.563       .  S
C195        C206   1.574       .  S
C196        C197   1.582       .  S
C196        C202   1.592       .  S
C196        C275   1.579       .  S
C197        C198   1.585       .  S
C197        C201   1.586       .  S
C197        C215   1.559       .  S
C198        C200   1.590       .  S
C198        C239   1.578       .  S
C199        C200   1.587       .  S
C199        C202   1.580       .  S
C199        C266   1.565       .  S
C200        C201   1.573       .  S
C200        C230   1.564       .  S
C201        C202   1.560       .  S
C201        C287   1.570       .  S
C202        C254   1.579       .  S
C203        C204   1.395       .  A
C203        C208   1.410       .  A
C204        C205   1.406       .  A
C204        H213   1.083       .  S
C205        C206   1.432       .  A
C205        S209   1.787       .  S
C206        C207   1.412       .  A
C207        C208   1.396       .  A
C207        H214   1.065       .  S
C208        S210   1.802       .  S
S209        H212   1.408       .  S
S210        H211   1.408       .  S
C215        C216   1.412       .  A
C215        C220   1.434       .  A
C216        C217   1.394       .  A
C216        H225   1.060       .  S
C217        C218   1.404       .  A
C217        S221   1.802       .  S
C218        C219   1.391       .  A
C219        C220   1.394       .  A
C219        H226   1.083       .  S
C220        S222   1.786       .  S
S221        H224   1.408       .  S
S222        H223   1.408       .  S
C227        C228   1.397       .  A
C227        C232   1.406       .  A
C228        C229   1.397       .  A
C228        H237   1.084       .  S
C229        C230   1.437       .  A
C229        S233   1.793       .  S
C230        C231   1.407       .  A
C231        C232   1.393       .  A
C231        H238   1.059       .  S
C232        S234   1.802       .  S
S233        H236   1.376       .  S
S234        H235   1.407       .  S
C239        C240   1.423       .  A
C239        C244   1.449       .  A
C240        C241   1.398       .  A
C240        H249   1.059       .  S
C241        C242   1.393       .  A
C241        S245   1.805       .  S
C242        C243   1.385       .  A
C243        C244   1.398       .  A
C243        H250   1.086       .  S
C244        S246   1.800       .  S
S245        H248   1.406       .  S
S246        H247   1.366       .  S
C251        C252   1.395       .  A
C251        C256   1.403       .  A
C252        C253   1.412       .  A
C252        H261   1.082       .  S
C253        C254   1.431       .  A
C253        S257   1.787       .  S
C254        C255   1.413       .  A
C255        C256   1.394       .  A
C255        H262   1.057       .  S
C256        S258   1.806       .  S
S257        H260   1.406       .  S
S258        H259   1.408       .  S
C263        C264   1.400       .  A
C263        C268   1.404       .  A
C264        C265   1.412       .  A
C264        H273   1.083       .  S
C265        C266   1.429       .  A
C265        S269   1.798       .  S
C266        C267   1.408       .  A
C267        C268   1.392       .  A
C267        H274   1.065       .  S
C268        S270   1.805       .  S
S269        H272   1.407       .  S
S270        H271   1.407       .  S
C275        C276   1.420       .  A
C275        C280   1.458       .  A
C276        C277   1.406       .  A
C276        H285   1.072       .  S
C277        C278   1.402       .  A
C277        S281   1.804       .  S
C278        C279   1.386       .  A
C279        C280   1.401       .  A
C279        H286   1.086       .  S
C280        S282   1.820       .  S
S281        H284   1.406       .  S
S282        H283   1.377       .  S
C287        C288   1.418       .  A
C287        C292   1.429       .  A
C288        C289   1.397       .  A
C288        H297   1.055       .  S
C289        C290   1.398       .  A
C289        S293   1.805       .  S
C290        C291   1.394       .  A
C291        C292   1.407       .  A
C291        H298   1.083       .  S
C292        S294   1.792       .  S
S293        H296   1.405       .  S
S294        H295   1.407       .  S
N299        N300   1.318       .  A
N299        N305   1.317       .  A
N299       Mn626   2.184       .  S
N300        C307   1.348       .  A
N301        N303   1.312       .  A
N301        N302   1.315       .  A
N301       Mn317   2.183   1_455  S
N302        C308   1.353       .  A
N303        N304   1.317       .  A
N304        C308   1.350       .  A
N305        N306   1.323       .  A
N305       Mn913   2.223   1_554  S
N306        C307   1.355       .  A
C307        C439   1.469       .  S
C308        C367   1.477       .  S
N309        N315   1.317       .  A
N309        N310   1.322       .  A
N309       Mn935   2.218       .  S
N310        C318   1.356       .  A
N311        N312   1.318       .  A
N311        N313   1.317       .  A
N311      Mn1062   2.198       .  S
N312        C319   1.351       .  A
N313        N314   1.324       .  A
N313       Mn339   2.219   1_565  S
N314        C319   1.355       .  A
N315        N316   1.323       .  A
N315       Mn466   2.214   1_455  S
N316        C318   1.353       .  A
Mn317       N901   2.224       .  S
Mn317      N1056   2.197   1_554  S
Mn317       N464   2.213   1_654  S
C318        C427   1.480       .  S
C319        C400   1.483       .  S
N320        N321   1.318       .  A
N320        N326   1.314       .  A
N320       Mn328   2.180   1_455  S
N321        C329   1.349       .  A
N322        N324   1.313       .  A
N322        N323   1.317       .  A
N322       Mn489   2.186       .  S
N323        C330   1.353       .  A
N324        N325   1.318       .  A
N324       Mn924   2.183       .  S
N325        C330   1.351       .  A
N326        N327   1.321       .  A
N326      Mn1085   2.208       .  S
N327        C329   1.354       .  A
Mn328       N597   2.186       .  S
Mn328       N920   2.182       .  S
Mn328      Cl341   2.549   1_655  S
C329        C391   1.465       .  S
C330        C376   1.479       .  S
N331        N332   1.321       .  A
N331        N337   1.317       .  A
N332        C342   1.355       .  A
N333        N334   1.317       .  A
N333        N335   1.315       .  A
N333       Mn936   2.184       .  S
N334        C343   1.349       .  A
N335        N336   1.323       .  A
N335       Mn637   2.220       .  S
N336        C343   1.359       .  A
N337        N338   1.321       .  A
N337       Mn340   2.205       .  S
N338        C342   1.352       .  A
Mn339       N905   2.215   1_545  S
Mn339       N633   2.219       .  S
Mn339      Cl788   2.552   1_545  S
Mn340       N471   2.188       .  S
Mn340      N1071   2.207       .  S
Mn340       N929   2.181       .  S
Mn340     Cl1086   2.536       .  S
Cl341      Mn786   2.552   1_554  S
Cl341     Mn1085   2.533       .  S
C342        C412   1.480       .  S
C343        C352   1.488       .  S
C344        C345   1.595       .  S
C344        C347   1.574       .  S
C344        C348   1.564       .  S
C344        C355   1.574       .  S
C345        C346   1.582       .  S
C345        C351   1.592       .  S
C345        C424   1.578       .  S
C346        C347   1.585       .  S
C346        C350   1.586       .  S
C346        C364   1.559       .  S
C347        C349   1.590       .  S
C347        C388   1.580       .  S
C348        C349   1.588       .  S
C348        C351   1.580       .  S
C348        C415   1.566       .  S
C349        C350   1.572       .  S
C349        C379   1.563       .  S
C350        C351   1.560       .  S
C350        C436   1.570       .  S
C351        C403   1.579       .  S
C352        C353   1.395       .  A
C352        C357   1.411       .  A
C353        C354   1.406       .  A
C353        H362   1.083       .  S
C354        C355   1.431       .  A
C354        S358   1.785       .  S
C355        C356   1.412       .  A
C356        C357   1.396       .  A
C356        H363   1.065       .  S
C357        S359   1.802       .  S
S358        H361   1.408       .  S
S359        H360   1.408       .  S
C364        C365   1.412       .  A
C364        C369   1.434       .  A
C365        C366   1.394       .  A
C365        H374   1.060       .  S
C366        C367   1.404       .  A
C366        S370   1.802       .  S
C367        C368   1.392       .  A
C368        C369   1.395       .  A
C368        H375   1.083       .  S
C369        S371   1.787       .  S
S370        H373   1.408       .  S
S371        H372   1.408       .  S
C376        C377   1.397       .  A
C376        C381   1.405       .  A
C377        C378   1.397       .  A
C377        H386   1.084       .  S
C378        C379   1.438       .  A
C378        S382   1.793       .  S
C379        C380   1.406       .  A
C380        C381   1.392       .  A
C380        H387   1.058       .  S
C381        S383   1.802       .  S
S382        H385   1.376       .  S
S383        H384   1.408       .  S
C388        C389   1.424       .  A
C388        C393   1.449       .  A
C389        C390   1.398       .  A
C389        H398   1.059       .  S
C390        C391   1.394       .  A
C390        S394   1.805       .  S
C391        C392   1.385       .  A
C392        C393   1.399       .  A
C392        H399   1.086       .  S
C393        S395   1.800       .  S
S394        H397   1.406       .  S
S395        H396   1.366       .  S
C400        C401   1.395       .  A
C400        C405   1.403       .  A
C401        C402   1.412       .  A
C401        H410   1.082       .  S
C402        C403   1.432       .  A
C402        S406   1.787       .  S
C403        C404   1.413       .  A
C404        C405   1.393       .  A
C404        H411   1.058       .  S
C405        S407   1.806       .  S
S406        H409   1.406       .  S
S407        H408   1.408       .  S
C412        C413   1.401       .  A
C412        C417   1.404       .  A
C413        C414   1.412       .  A
C413        H422   1.083       .  S
C414        C415   1.428       .  A
C414        S418   1.798       .  S
C415        C416   1.408       .  A
C416        C417   1.392       .  A
C416        H423   1.066       .  S
C417        S419   1.805       .  S
S418        H421   1.406       .  S
S419        H420   1.407       .  S
C424        C425   1.419       .  A
C424        C429   1.457       .  A
C425        C426   1.406       .  A
C425        H434   1.072       .  S
C426        C427   1.402       .  A
C426        S430   1.803       .  S
C427        C428   1.386       .  A
C428        C429   1.401       .  A
C428        H435   1.086       .  S
C429        S431   1.820       .  S
S430        H433   1.405       .  S
S431        H432   1.377       .  S
C436        C437   1.418       .  A
C436        C441   1.429       .  A
C437        C438   1.396       .  A
C437        H446   1.054       .  S
C438        C439   1.398       .  A
C438        S442   1.807       .  S
C439        C440   1.395       .  A
C440        C441   1.407       .  A
C440        H447   1.083       .  S
C441        S443   1.793       .  S
S442        H445   1.404       .  S
S443        H444   1.406       .  S
N448        N449   1.319       .  A
N448        N454   1.317       .  A
N448       Mn775   2.185       .  S
N449        C456   1.348       .  A
N450        N452   1.312       .  A
N450        N451   1.315       .  A
N450       Mn466   2.181   1_455  S
N451        C457   1.353       .  A
N452        N453   1.317       .  A
N453        C457   1.350       .  A
N454        N455   1.323       .  A
N454      Mn1062   2.223       .  S
N455        C456   1.355       .  A
C456        C588   1.471       .  S
C457        C516   1.476       .  S
N458        N464   1.317       .  A
N458        N459   1.322       .  A
N458      Mn1084   2.217       .  S
N459        C467   1.355       .  A
N460        N461   1.319       .  A
N460        N462   1.317       .  A
N460       Mn913   2.199       .  S
N461        C468   1.352       .  A
N462        N463   1.323       .  A
N462       Mn488   2.217   1_565  S
N463        C468   1.355       .  A
N464        N465   1.323       .  A
N465        C467   1.353       .  A
Mn466      N1050   2.223       .  S
Mn466       N907   2.196       .  S
C467        C576   1.480       .  S
C468        C549   1.482       .  S
N469        N470   1.318       .  A
N469        N475   1.314       .  A
N469       Mn477   2.182   1_455  S
N470        C478   1.349       .  A
N471        N473   1.313       .  A
N471        N472   1.317       .  A
N472        C479   1.353       .  A
N473        N474   1.318       .  A
N473      Mn1073   2.185       .  S
N474        C479   1.352       .  A
N475        N476   1.321       .  A
N475       Mn936   2.207       .  S
N476        C478   1.354       .  A
Mn477       N746   2.187       .  S
Mn477      N1069   2.182       .  S
Mn477      Cl490   2.548   1_655  S
C478        C540   1.464       .  S
C479        C525   1.480       .  S
N480        N481   1.321       .  A
N480        N486   1.317       .  A
N481        C491   1.355       .  A
N482        N483   1.317       .  A
N482        N484   1.315       .  A
N482      Mn1085   2.184   1_556  S
N483        C492   1.349       .  A
N484        N485   1.323       .  A
N484       Mn786   2.218       .  S
N485        C492   1.358       .  A
N486        N487   1.322       .  A
N486       Mn489   2.206   1_556  S
N487        C491   1.352       .  A
Mn488      N1054   2.215   1_545  S
Mn488       N782   2.218       .  S
Mn488      Cl639   2.551   1_546  S
Mn489       N922   2.207       .  S
Mn489      N1078   2.181   1_554  S
Mn489      Cl937   2.535       .  S
Cl490      Mn637   2.551       .  S
Cl490      Mn936   2.535       .  S
C491        C561   1.481       .  S
C492        C501   1.487       .  S
C493        C494   1.595       .  S
C493        C496   1.573       .  S
C493        C497   1.564       .  S
C493        C504   1.574       .  S
C494        C495   1.582       .  S
C494        C500   1.592       .  S
C494        C573   1.579       .  S
C495        C496   1.585       .  S
C495        C499   1.586       .  S
C495        C513   1.559       .  S
C496        C498   1.591       .  S
C496        C537   1.579       .  S
C497        C498   1.588       .  S
C497        C500   1.580       .  S
C497        C564   1.566       .  S
C498        C499   1.573       .  S
C498        C528   1.565       .  S
C499        C500   1.560       .  S
C499        C585   1.571       .  S
C500        C552   1.578       .  S
C501        C502   1.395       .  A
C501        C506   1.411       .  A
C502        C503   1.406       .  A
C502        H511   1.083       .  S
C503        C504   1.432       .  A
C503        S507   1.786       .  S
C504        C505   1.413       .  A
C505        C506   1.396       .  A
C505        H512   1.065       .  S
C506        S508   1.802       .  S
S507        H510   1.408       .  S
S508        H509   1.408       .  S
C513        C514   1.412       .  A
C513        C518   1.434       .  A
C514        C515   1.393       .  A
C514        H523   1.060       .  S
C515        C516   1.404       .  A
C515        S519   1.802       .  S
C516        C517   1.392       .  A
C517        C518   1.395       .  A
C517        H524   1.083       .  S
C518        S520   1.786       .  S
S519        H522   1.408       .  S
S520        H521   1.408       .  S
C525        C526   1.397       .  A
C525        C530   1.405       .  A
C526        C527   1.397       .  A
C526        H535   1.084       .  S
C527        C528   1.438       .  A
C527        S531   1.793       .  S
C528        C529   1.407       .  A
C529        C530   1.393       .  A
C529        H536   1.058       .  S
C530        S532   1.802       .  S
S531        H534   1.375       .  S
S532        H533   1.408       .  S
C537        C538   1.423       .  A
C537        C542   1.449       .  A
C538        C539   1.398       .  A
C538        H547   1.059       .  S
C539        C540   1.393       .  A
C539        S543   1.804       .  S
C540        C541   1.385       .  A
C541        C542   1.399       .  A
C541        H548   1.086       .  S
C542        S544   1.800       .  S
S543        H546   1.406       .  S
S544        H545   1.366       .  S
C549        C550   1.396       .  A
C549        C554   1.403       .  A
C550        C551   1.411       .  A
C550        H559   1.083       .  S
C551        C552   1.431       .  A
C551        S555   1.786       .  S
C552        C553   1.412       .  A
C553        C554   1.393       .  A
C553        H560   1.058       .  S
C554        S556   1.806       .  S
S555        H558   1.407       .  S
S556        H557   1.408       .  S
C561        C562   1.401       .  A
C561        C566   1.404       .  A
C562        C563   1.413       .  A
C562        H571   1.083       .  S
C563        C564   1.428       .  A
C563        S567   1.799       .  S
C564        C565   1.408       .  A
C565        C566   1.392       .  A
C565        H572   1.065       .  S
C566        S568   1.805       .  S
S567        H570   1.406       .  S
S568        H569   1.407       .  S
C573        C574   1.420       .  A
C573        C578   1.457       .  A
C574        C575   1.406       .  A
C574        H583   1.072       .  S
C575        C576   1.402       .  A
C575        S579   1.804       .  S
C576        C577   1.386       .  A
C577        C578   1.401       .  A
C577        H584   1.086       .  S
C578        S580   1.820       .  S
S579        H582   1.406       .  S
S580        H581   1.377       .  S
C585        C586   1.418       .  A
C585        C590   1.430       .  A
C586        C587   1.397       .  A
C586        H595   1.055       .  S
C587        C588   1.398       .  A
C587        S591   1.806       .  S
C588        C589   1.395       .  A
C589        C590   1.408       .  A
C589        H596   1.083       .  S
C590        S592   1.793       .  S
S591        H594   1.405       .  S
S592        H593   1.406       .  S
N597        N598   1.319       .  A
N597        N603   1.317       .  A
N598        C605   1.348       .  A
N599        N601   1.312       .  A
N599        N600   1.314       .  A
N599       Mn615   2.181       .  S
N600        C606   1.353       .  A
N601        N602   1.317       .  A
N601       Mn924   2.174       .  S
N602        C606   1.350       .  A
N603        N604   1.323       .  A
N604        C605   1.355       .  A
C605        C737   1.471       .  S
C606        C665   1.476       .  S
N607        N613   1.316       .  A
N607        N608   1.322       .  A
N608        C616   1.355       .  A
N609        N610   1.319       .  A
N609        N611   1.317       .  A
N610        C617   1.352       .  A
N611        N612   1.323       .  A
N611       Mn637   2.217   1_655  S
N612        C617   1.355       .  A
N613        N614   1.323       .  A
N613       Mn764   2.214       .  S
N614        C616   1.353       .  A
Mn615       N762   2.211   1_554  S
Mn615      Cl937   2.536       .  S
C616        C725   1.479       .  S
C617        C698   1.481       .  S
N618        N619   1.317       .  A
N618        N624   1.314       .  A
N618       Mn626   2.179   1_545  S
N619        C627   1.349       .  A
N620        N622   1.313       .  A
N620        N621   1.317       .  A
N620       Mn787   2.188   1_655  S
N621        C628   1.353       .  A
N622        N623   1.318       .  A
N623        C628   1.352       .  A
N624        N625   1.321       .  A
N625        C627   1.354       .  A
Mn626       N899   2.175       .  S
Mn626      Cl639   2.549       .  S
C627        C689   1.463       .  S
C628        C674   1.480       .  S
N629        N630   1.321       .  A
N629        N635   1.317       .  A
N629       Mn935   2.216   1_645  S
N630        C640   1.355       .  A
N631        N632   1.317       .  A
N631        N633   1.315       .  A
N632        C641   1.349       .  A
N633        N634   1.323       .  A
N634        C641   1.358       .  A
N635        N636   1.322       .  A
N635       Mn638   2.205   1_655  S
N636        C640   1.352       .  A
Mn637       N927   2.215   1_455  S
Mn638       N769   2.188   1_455  S
Cl639      Mn913   2.534   1_554  S
C640        C710   1.481       .  S
C641        C650   1.487       .  S
C642        C643   1.594       .  S
C642        C645   1.573       .  S
C642        C646   1.563       .  S
C642        C653   1.574       .  S
C643        C644   1.582       .  S
C643        C649   1.591       .  S
C643        C722   1.577       .  S
C644        C645   1.585       .  S
C644        C648   1.586       .  S
C644        C662   1.559       .  S
C645        C647   1.591       .  S
C645        C686   1.579       .  S
C646        C647   1.588       .  S
C646        C649   1.579       .  S
C646        C713   1.566       .  S
C647        C648   1.573       .  S
C647        C677   1.564       .  S
C648        C649   1.560       .  S
C648        C734   1.570       .  S
C649        C701   1.579       .  S
C650        C651   1.395       .  A
C650        C655   1.410       .  A
C651        C652   1.406       .  A
C651        H660   1.083       .  S
C652        C653   1.432       .  A
C652        S656   1.786       .  S
C653        C654   1.413       .  A
C654        C655   1.396       .  A
C654        H661   1.065       .  S
C655        S657   1.802       .  S
S656        H659   1.408       .  S
S657        H658   1.408       .  S
C662        C663   1.412       .  A
C662        C667   1.434       .  A
C663        C664   1.393       .  A
C663        H672   1.059       .  S
C664        C665   1.404       .  A
C664        S668   1.802       .  S
C665        C666   1.392       .  A
C666        C667   1.395       .  A
C666        H673   1.083       .  S
C667        S669   1.787       .  S
S668        H671   1.408       .  S
S669        H670   1.408       .  S
C674        C675   1.396       .  A
C674        C679   1.405       .  A
C675        C676   1.397       .  A
C675        H684   1.084       .  S
C676        C677   1.438       .  A
C676        S680   1.793       .  S
C677        C678   1.407       .  A
C678        C679   1.392       .  A
C678        H685   1.058       .  S
C679        S681   1.802       .  S
S680        H683   1.376       .  S
S681        H682   1.408       .  S
C686        C687   1.423       .  A
C686        C691   1.449       .  A
C687        C688   1.398       .  A
C687        H696   1.059       .  S
C688        C689   1.393       .  A
C688        S692   1.804       .  S
C689        C690   1.385       .  A
C690        C691   1.398       .  A
C690        H697   1.086       .  S
C691        S693   1.800       .  S
S692        H695   1.406       .  S
S693        H694   1.365       .  S
C698        C699   1.395       .  A
C698        C703   1.403       .  A
C699        C700   1.411       .  A
C699        H708   1.083       .  S
C700        C701   1.432       .  A
C700        S704   1.787       .  S
C701        C702   1.412       .  A
C702        C703   1.393       .  A
C702        H709   1.063       .  S
C703        S705   1.806       .  S
S704        H707   1.406       .  S
S705        H706   1.408       .  S
C710        C711   1.401       .  A
C710        C715   1.404       .  A
C711        C712   1.413       .  A
C711        H720   1.083       .  S
C712        C713   1.429       .  A
C712        S716   1.799       .  S
C713        C714   1.408       .  A
C714        C715   1.392       .  A
C714        H721   1.066       .  S
C715        S717   1.804       .  S
S716        H719   1.406       .  S
S717        H718   1.408       .  S
C722        C723   1.419       .  A
C722        C727   1.457       .  A
C723        C724   1.404       .  A
C723        H732   1.071       .  S
C724        C725   1.402       .  A
C724        S728   1.804       .  S
C725        C726   1.387       .  A
C726        C727   1.401       .  A
C726        H733   1.086       .  S
C727        S729   1.820       .  S
S728        H731   1.405       .  S
S729        H730   1.378       .  S
C734        C735   1.418       .  A
C734        C739   1.430       .  A
C735        C736   1.397       .  A
C735        H744   1.055       .  S
C736        C737   1.398       .  A
C736        S740   1.806       .  S
C737        C738   1.395       .  A
C738        C739   1.408       .  A
C738        H745   1.083       .  S
C739        S741   1.793       .  S
S740        H743   1.405       .  S
S741        H742   1.406       .  S
N746        N747   1.319       .  A
N746        N752   1.317       .  A
N747        C754   1.348       .  A
N748        N750   1.312       .  A
N748        N749   1.315       .  A
N748       Mn764   2.181       .  S
N749        C755   1.353       .  A
N750        N751   1.317       .  A
N750      Mn1073   2.176       .  S
N751        C755   1.350       .  A
N752        N753   1.323       .  A
N753        C754   1.355       .  A
C754        C886   1.471       .  S
C755        C814   1.476       .  S
N756        N762   1.316       .  A
N756        N757   1.322       .  A
N757        C765   1.355       .  A
N758        N759   1.318       .  A
N758        N760   1.317       .  A
N759        C766   1.351       .  A
N760        N761   1.323       .  A
N760       Mn786   2.218   1_655  S
N761        C766   1.355       .  A
N762        N763   1.323       .  A
N763        C765   1.353       .  A
Mn764     Cl1086   2.536       .  S
C765        C874   1.478       .  S
C766        C847   1.482       .  S
N767        N768   1.318       .  A
N767        N773   1.314       .  A
N767       Mn775   2.181   1_545  S
N768        C776   1.349       .  A
N769        N771   1.313       .  A
N769        N770   1.317       .  A
N770        C777   1.353       .  A
N771        N772   1.318       .  A
N772        C777   1.352       .  A
N773        N774   1.321       .  A
N774        C776   1.354       .  A
Mn775      N1048   2.177       .  S
Mn775      Cl788   2.548       .  S
C776        C838   1.464       .  S
C777        C823   1.480       .  S
N778        N779   1.321       .  A
N778        N784   1.317       .  A
N778      Mn1084   2.217   1_645  S
N779        C789   1.355       .  A
N780        N781   1.317       .  A
N780        N782   1.315       .  A
N781        C790   1.348       .  A
N782        N783   1.323       .  A
N783        C790   1.358       .  A
N784        N785   1.322       .  A
N784       Mn787   2.206   1_656  S
N785        C789   1.352       .  A
Mn786      N1076   2.213   1_455  S
Cl788     Mn1062   2.535       .  S
C789        C859   1.481       .  S
C790        C799   1.487       .  S
C791        C792   1.595       .  S
C791        C794   1.573       .  S
C791        C795   1.563       .  S
C791        C802   1.574       .  S
C792        C793   1.582       .  S
C792        C798   1.592       .  S
C792        C871   1.578       .  S
C793        C794   1.585       .  S
C793        C797   1.586       .  S
C793        C811   1.559       .  S
C794        C796   1.591       .  S
C794        C835   1.579       .  S
C795        C796   1.588       .  S
C795        C798   1.579       .  S
C795        C862   1.565       .  S
C796        C797   1.573       .  S
C796        C826   1.565       .  S
C797        C798   1.560       .  S
C797        C883   1.570       .  S
C798        C850   1.578       .  S
C799        C800   1.395       .  A
C799        C804   1.411       .  A
C800        C801   1.406       .  A
C800        H809   1.083       .  S
C801        C802   1.432       .  A
C801        S805   1.786       .  S
C802        C803   1.413       .  A
C803        C804   1.396       .  A
C803        H810   1.065       .  S
C804        S806   1.802       .  S
S805        H808   1.407       .  S
S806        H807   1.408       .  S
C811        C812   1.412       .  A
C811        C816   1.434       .  A
C812        C813   1.393       .  A
C812        H821   1.060       .  S
C813        C814   1.404       .  A
C813        S817   1.802       .  S
C814        C815   1.392       .  A
C815        C816   1.396       .  A
C815        H822   1.083       .  S
C816        S818   1.787       .  S
S817        H820   1.408       .  S
S818        H819   1.408       .  S
C823        C824   1.396       .  A
C823        C828   1.405       .  A
C824        C825   1.397       .  A
C824        H833   1.084       .  S
C825        C826   1.438       .  A
C825        S829   1.793       .  S
C826        C827   1.407       .  A
C827        C828   1.392       .  A
C827        H834   1.058       .  S
C828        S830   1.802       .  S
S829        H832   1.376       .  S
S830        H831   1.408       .  S
C835        C836   1.423       .  A
C835        C840   1.449       .  A
C836        C837   1.398       .  A
C836        H845   1.059       .  S
C837        C838   1.394       .  A
C837        S841   1.805       .  S
C838        C839   1.385       .  A
C839        C840   1.398       .  A
C839        H846   1.086       .  S
C840        S842   1.800       .  S
S841        H844   1.406       .  S
S842        H843   1.365       .  S
C847        C848   1.395       .  A
C847        C852   1.403       .  A
C848        C849   1.411       .  A
C848        H857   1.083       .  S
C849        C850   1.431       .  A
C849        S853   1.787       .  S
C850        C851   1.412       .  A
C851        C852   1.393       .  A
C851        H858   1.061       .  S
C852        S854   1.806       .  S
S853        H856   1.406       .  S
S854        H855   1.408       .  S
C859        C860   1.401       .  A
C859        C864   1.404       .  A
C860        C861   1.413       .  A
C860        H869   1.083       .  S
C861        C862   1.428       .  A
C861        S865   1.798       .  S
C862        C863   1.407       .  A
C863        C864   1.392       .  A
C863        H870   1.066       .  S
C864        S866   1.805       .  S
S865        H868   1.406       .  S
S866        H867   1.407       .  S
C871        C872   1.420       .  A
C871        C876   1.457       .  A
C872        C873   1.405       .  A
C872        H881   1.072       .  S
C873        C874   1.402       .  A
C873        S877   1.804       .  S
C874        C875   1.386       .  A
C875        C876   1.401       .  A
C875        H882   1.086       .  S
C876        S878   1.820       .  S
S877        H880   1.405       .  S
S878        H879   1.377       .  S
C883        C884   1.418       .  A
C883        C888   1.430       .  A
C884        C885   1.397       .  A
C884        H893   1.055       .  S
C885        C886   1.398       .  A
C885        S889   1.806       .  S
C886        C887   1.395       .  A
C887        C888   1.408       .  A
C887        H894   1.083       .  S
C888        S890   1.793       .  S
S889        H892   1.405       .  S
S890        H891   1.406       .  S
N895        N896   1.319       .  A
N895        N901   1.317       .  A
N896        C903   1.348       .  A
N897        N899   1.312       .  A
N897        N898   1.315       .  A
N897       Mn913   2.183   1_554  S
N898        C904   1.353       .  A
N899        N900   1.317       .  A
N900        C904   1.350       .  A
N901        N902   1.323       .  A
N902        C903   1.355       .  A
C903       C1035   1.471       .  S
C904        C963   1.476       .  S
N905        N911   1.316       .  A
N905        N906   1.322       .  A
N906        C914   1.355       .  A
N907        N908   1.319       .  A
N907        N909   1.317       .  A
N908        C915   1.351       .  A
N909        N910   1.323       .  A
N909       Mn935   2.220   1_655  S
N910        C915   1.355       .  A
N911        N912   1.323       .  A
N911      Mn1062   2.213       .  S
N912        C914   1.353       .  A
Mn913      N1060   2.214       .  S
C914       C1023   1.478       .  S
C915        C996   1.483       .  S
N916        N917   1.318       .  A
N916        N922   1.314       .  A
N916       Mn924   2.181       .  S
N917        C925   1.349       .  A
N918        N920   1.313       .  A
N918        N919   1.317       .  A
N918      Mn1085   2.191   1_655  S
N919        C926   1.354       .  A
N920        N921   1.318       .  A
N921        C926   1.351       .  A
N922        N923   1.321       .  A
N923        C925   1.354       .  A
Mn924      Cl937   2.548       .  S
C925        C987   1.465       .  S
C926        C972   1.480       .  S
N927        N928   1.321       .  A
N927        N933   1.317       .  A
N928        C938   1.355       .  A
N929        N930   1.317       .  A
N929        N931   1.315       .  A
N930        C939   1.348       .  A
N931        N932   1.323       .  A
N932        C939   1.358       .  A
N933        N934   1.321       .  A
N933       Mn936   2.203   1_655  S
N934        C938   1.352       .  A
Mn936      N1067   2.189   1_455  S
C938       C1008   1.481       .  S
C939        C948   1.487       .  S
C940        C941   1.594       .  S
C940        C943   1.574       .  S
C940        C944   1.563       .  S
C940        C951   1.573       .  S
C941        C942   1.581       .  S
C941        C947   1.593       .  S
C941       C1020   1.578       .  S
C942        C943   1.585       .  S
C942        C946   1.586       .  S
C942        C960   1.559       .  S
C943        C945   1.590       .  S
C943        C984   1.579       .  S
C944        C945   1.588       .  S
C944        C947   1.580       .  S
C944       C1011   1.567       .  S
C945        C946   1.574       .  S
C945        C975   1.564       .  S
C946        C947   1.560       .  S
C946       C1032   1.569       .  S
C947        C999   1.580       .  S
C948        C949   1.395       .  A
C948        C953   1.410       .  A
C949        C950   1.405       .  A
C949        H958   1.083       .  S
C950        C951   1.431       .  A
C950        S954   1.786       .  S
C951        C952   1.413       .  A
C952        C953   1.396       .  A
C952        H959   1.065       .  S
C953        S955   1.802       .  S
S954        H957   1.408       .  S
S955        H956   1.408       .  S
C960        C961   1.412       .  A
C960        C965   1.434       .  A
C961        C962   1.393       .  A
C961        H970   1.059       .  S
C962        C963   1.404       .  A
C962        S966   1.802       .  S
C963        C964   1.392       .  A
C964        C965   1.395       .  A
C964        H971   1.083       .  S
C965        S967   1.787       .  S
S966        H969   1.408       .  S
S967        H968   1.408       .  S
C972        C973   1.396       .  A
C972        C977   1.406       .  A
C973        C974   1.397       .  A
C973        H982   1.084       .  S
C974        C975   1.437       .  A
C974        S978   1.793       .  S
C975        C976   1.407       .  A
C976        C977   1.393       .  A
C976        H983   1.059       .  S
C977        S979   1.802       .  S
S978        H981   1.377       .  S
S979        H980   1.408       .  S
C984        C985   1.423       .  A
C984        C989   1.448       .  A
C985        C986   1.398       .  A
C985        H994   1.059       .  S
C986        C987   1.394       .  A
C986        S990   1.805       .  S
C987        C988   1.385       .  A
C988        C989   1.398       .  A
C988        H995   1.086       .  S
C989        S991   1.799       .  S
S990        H993   1.406       .  S
S991        H992   1.366       .  S
C996        C997   1.395       .  A
C996       C1001   1.403       .  A
C997        C998   1.412       .  A
C997       H1006   1.082       .  S
C998        C999   1.432       .  A
C998       S1002   1.787       .  S
C999       C1000   1.413       .  A
C1000      C1001   1.394       .  A
C1000      H1007   1.061       .  S
C1001      S1003   1.806       .  S
S1002      H1005   1.406       .  S
S1003      H1004   1.408       .  S
C1008      C1009   1.401       .  A
C1008      C1013   1.404       .  A
C1009      C1010   1.413       .  A
C1009      H1018   1.083       .  S
C1010      C1011   1.429       .  A
C1010      S1014   1.798       .  S
C1011      C1012   1.408       .  A
C1012      C1013   1.392       .  A
C1012      H1019   1.066       .  S
C1013      S1015   1.805       .  S
S1014      H1017   1.406       .  S
S1015      H1016   1.407       .  S
C1020      C1021   1.419       .  A
C1020      C1025   1.458       .  A
C1021      C1022   1.404       .  A
C1021      H1030   1.071       .  S
C1022      C1023   1.402       .  A
C1022      S1026   1.804       .  S
C1023      C1024   1.386       .  A
C1024      C1025   1.401       .  A
C1024      H1031   1.086       .  S
C1025      S1027   1.821       .  S
S1026      H1029   1.405       .  S
S1027      H1028   1.377       .  S
C1032      C1033   1.418       .  A
C1032      C1037   1.429       .  A
C1033      C1034   1.397       .  A
C1033      H1042   1.055       .  S
C1034      C1035   1.398       .  A
C1034      S1038   1.806       .  S
C1035      C1036   1.394       .  A
C1036      C1037   1.407       .  A
C1036      H1043   1.083       .  S
C1037      S1039   1.792       .  S
S1038      H1041   1.405       .  S
S1039      H1040   1.407       .  S
N1044      N1045   1.318       .  A
N1044      N1050   1.317       .  A
N1045      C1052   1.348       .  A
N1046      N1048   1.312       .  A
N1046      N1047   1.315       .  A
N1046     Mn1062   2.183       .  S
N1047      C1053   1.353       .  A
N1048      N1049   1.317       .  A
N1049      C1053   1.350       .  A
N1050      N1051   1.323       .  A
N1051      C1052   1.355       .  A
C1052      C1184   1.470       .  S
C1053      C1112   1.477       .  S
N1054      N1060   1.316       .  A
N1054      N1055   1.322       .  A
N1055      C1063   1.355       .  A
N1056      N1057   1.318       .  A
N1056      N1058   1.317       .  A
N1057      C1064   1.351       .  A
N1058      N1059   1.323       .  A
N1058     Mn1084   2.216   1_655  S
N1059      C1064   1.355       .  A
N1060      N1061   1.323       .  A
N1061      C1063   1.353       .  A
C1063      C1172   1.479       .  S
C1064      C1145   1.481       .  S
N1065      N1066   1.317       .  A
N1065      N1071   1.314       .  A
N1065     Mn1073   2.181       .  S
N1066      C1074   1.349       .  A
N1067      N1069   1.313       .  A
N1067      N1068   1.317       .  A
N1068      C1075   1.353       .  A
N1069      N1070   1.318       .  A
N1070      C1075   1.351       .  A
N1071      N1072   1.321       .  A
N1072      C1074   1.354       .  A
Mn1073    Cl1086   2.547       .  S
C1074      C1136   1.464       .  S
C1075      C1121   1.480       .  S
N1076      N1077   1.321       .  A
N1076      N1082   1.317       .  A
N1077      C1087   1.355       .  A
N1078      N1079   1.317       .  A
N1078      N1080   1.315       .  A
N1079      C1088   1.348       .  A
N1080      N1081   1.323       .  A
N1081      C1088   1.359       .  A
N1082      N1083   1.321       .  A
N1082     Mn1085   2.205   1_656  S
N1083      C1087   1.352       .  A
C1087      C1157   1.479       .  S
C1088      C1097   1.488       .  S
C1089      C1090   1.594       .  S
C1089      C1092   1.574       .  S
C1089      C1093   1.564       .  S
C1089      C1100   1.576       .  S
C1090      C1091   1.582       .  S
C1090      C1096   1.592       .  S
C1090      C1169   1.577       .  S
C1091      C1092   1.586       .  S
C1091      C1095   1.586       .  S
C1091      C1109   1.560       .  S
C1092      C1094   1.591       .  S
C1092      C1133   1.579       .  S
C1093      C1094   1.588       .  S
C1093      C1096   1.579       .  S
C1093      C1160   1.563       .  S
C1094      C1095   1.573       .  S
C1094      C1124   1.565       .  S
C1095      C1096   1.560       .  S
C1095      C1181   1.570       .  S
C1096      C1148   1.579       .  S
C1097      C1098   1.394       .  A
C1097      C1102   1.411       .  A
C1098      C1099   1.406       .  A
C1098      H1107   1.083       .  S
C1099      C1100   1.431       .  A
C1099      S1103   1.785       .  S
C1100      C1101   1.414       .  A
C1101      C1102   1.397       .  A
C1101      H1108   1.065       .  S
C1102      S1104   1.802       .  S
S1103      H1106   1.407       .  S
S1104      H1105   1.408       .  S
C1109      C1110   1.412       .  A
C1109      C1114   1.434       .  A
C1110      C1111   1.394       .  A
C1110      H1119   1.060       .  S
C1111      C1112   1.404       .  A
C1111      S1115   1.802       .  S
C1112      C1113   1.392       .  A
C1113      C1114   1.396       .  A
C1113      H1120   1.083       .  S
C1114      S1116   1.786       .  S
S1115      H1118   1.408       .  S
S1116      H1117   1.408       .  S
C1121      C1122   1.397       .  A
C1121      C1126   1.405       .  A
C1122      C1123   1.398       .  A
C1122      H1131   1.084       .  S
C1123      C1124   1.438       .  A
C1123      S1127   1.793       .  S
C1124      C1125   1.407       .  A
C1125      C1126   1.393       .  A
C1125      H1132   1.057       .  S
C1126      S1128   1.802       .  S
S1127      H1130   1.377       .  S
S1128      H1129   1.408       .  S
C1133      C1134   1.424       .  A
C1133      C1138   1.449       .  A
C1134      C1135   1.398       .  A
C1134      H1143   1.059       .  S
C1135      C1136   1.393       .  A
C1135      S1139   1.805       .  S
C1136      C1137   1.385       .  A
C1137      C1138   1.398       .  A
C1137      H1144   1.086       .  S
C1138      S1140   1.799       .  S
S1139      H1142   1.406       .  S
S1140      H1141   1.365       .  S
C1145      C1146   1.395       .  A
C1145      C1150   1.403       .  A
C1146      C1147   1.412       .  A
C1146      H1155   1.082       .  S
C1147      C1148   1.431       .  A
C1147      S1151   1.787       .  S
C1148      C1149   1.413       .  A
C1149      C1150   1.393       .  A
C1149      H1156   1.060       .  S
C1150      S1152   1.806       .  S
S1151      H1154   1.406       .  S
S1152      H1153   1.408       .  S
C1157      C1158   1.401       .  A
C1157      C1162   1.404       .  A
C1158      C1159   1.412       .  A
C1158      H1167   1.083       .  S
C1159      C1160   1.428       .  A
C1159      S1163   1.799       .  S
C1160      C1161   1.408       .  A
C1161      C1162   1.391       .  A
C1161      H1168   1.065       .  S
C1162      S1164   1.805       .  S
S1163      H1166   1.406       .  S
S1164      H1165   1.407       .  S
C1169      C1170   1.419       .  A
C1169      C1174   1.457       .  A
C1170      C1171   1.405       .  A
C1170      H1179   1.072       .  S
C1171      C1172   1.402       .  A
C1171      S1175   1.804       .  S
C1172      C1173   1.386       .  A
C1173      C1174   1.401       .  A
C1173      H1180   1.086       .  S
C1174      S1176   1.820       .  S
S1175      H1178   1.405       .  S
S1176      H1177   1.378       .  S
C1181      C1182   1.418       .  A
C1181      C1186   1.430       .  A
C1182      C1183   1.396       .  A
C1182      H1191   1.053       .  S
C1183      C1184   1.398       .  A
C1183      S1187   1.806       .  S
C1184      C1185   1.394       .  A
C1185      C1186   1.407       .  A
C1185      H1192   1.083       .  S
C1186      S1188   1.792       .  S
S1187      H1190   1.405       .  S
S1188      H1189   1.407       .  S
