geometry optimzed in LAMMPS
_audit_creation_date              2020-12-01 
_audit_creation_method            'lammps2cif' 
_symmetry_space_group_name_H-M    'P1' 
_symmetry_Int_Tables_number       1 
_symmetry_cell_setting            triclinic 
loop_ 
_symmetry_equiv_pos_as_xyz 
  x,y,z 
_cell_length_a                    25.23925585 
_cell_length_b                    25.73178754101998 
_cell_length_c                    26.84852540466395 
_cell_angle_alpha                 90.0578732243907 
_cell_angle_beta                  89.71304430469283 
_cell_angle_gamma                 89.7314337876799 
loop_ 
_atom_site_label 
_atom_site_type_symbol 
_atom_site_fract_x 
_atom_site_fract_y 
_atom_site_fract_z 
_atom_site_charge 
C1          C  0.35366043  0.64574900  0.64455308     0.00500
N2          N  0.40075058  0.56178918  0.55412739    -0.03200
N3          N  0.36724257  0.56975008  0.59056713    -0.55300
N4          N  0.43723232  0.59666739  0.44276819    -0.02800
N5          N  0.43064014  0.62907642  0.40612575    -0.57400
N6          N  0.40104473  0.56071024  0.44231051    -0.02400
N7          N  0.36839923  0.56770026  0.40529788    -0.55300
N8          N  0.43735277  0.59745428  0.55391254    -0.02100
N9          N  0.43034982  0.63076316  0.59008312    -0.57800
C10         C  0.38713457  0.61222164  0.61328052     0.99000
C11         C  0.38808612  0.61026056  0.38247604     0.98800
N12         N  0.59135186  0.56255002  0.44194081    -0.03400
N13         N  0.62506112  0.57090643  0.40611772    -0.55900
N14         N  0.55475237  0.59766030  0.55355857    -0.01500
N15         N  0.56221158  0.63024028  0.59025782    -0.57100
N16         N  0.59155327  0.56190581  0.55259850    -0.03400
N17         N  0.62533643  0.56908758  0.58825144    -0.56100
N18         N  0.55447291  0.59822314  0.44227031    -0.01100
N19         N  0.56172137  0.63179824  0.40642513    -0.57200
Mn20       Mn  0.49585266  0.60019635  0.49817021     1.18400
C21         C  0.60570660  0.61357586  0.38365226     1.01100
C22         C  0.60627942  0.61119544  0.61197006     1.01800
N23         N  0.40306524  0.44431121  0.44252453    -0.03400
N24         N  0.36959111  0.43623108  0.40675921    -0.59700
N25         N  0.44001671  0.40993572  0.55260526    -0.02200
N26         N  0.43345280  0.37606229  0.58797424    -0.60400
N27         N  0.40250640  0.44495746  0.55354230    -0.02900
N28         N  0.36879101  0.43577618  0.58949161    -0.60000
N29         N  0.44062626  0.40939443  0.44146178    -0.01800
N30         N  0.43417184  0.37664806  0.40472401    -0.60700
Mn31       Mn  0.39873510  0.50293729  0.49821289     1.10700
C32         C  0.38974126  0.39451519  0.38295165     1.02300
C33         C  0.38950187  0.39304892  0.61121647     1.02400
N34         N  0.59465846  0.44530316  0.55245369    -0.02900
N35         N  0.62873134  0.43626964  0.58796815    -0.58300
N36         N  0.55748136  0.41022356  0.44061386    -0.02200
N37         N  0.56471380  0.37713081  0.40424846    -0.55000
N38         N  0.59481571  0.44508095  0.44143874    -0.03500
N39         N  0.62968458  0.43612155  0.40641562    -0.57900
N40         N  0.55748500  0.41033239  0.55245190    -0.02500
N41         N  0.56439875  0.37696697  0.58828957    -0.55000
Mn42       Mn  0.59595883  0.50387823  0.49703141     1.20200
Mn43       Mn  0.49891274  0.40756592  0.49676348     1.10100
Cl44       Cl  0.49736823  0.50368014  0.49759684    -0.83000
C45         C  0.60835758  0.39405020  0.61089769     0.99300
C46         C  0.60944342  0.39451745  0.38265181     0.99100
C47         C  0.64128596  0.35881836  0.64135680     0.00500
C48         C  0.35602707  0.36115714  0.35177197     0.00500
C49         C  0.63986120  0.64682604  0.35255090     0.00500
C50         C  0.35458407  0.64436469  0.35151438     0.00500
C51         C  0.64289230  0.36082862  0.35122805     0.00500
C52         C  0.35725736  0.35813663  0.64201117     0.00500
C53         C  0.64092784  0.64337744  0.64315913     0.00500
C54         C  0.28239334  0.21525293  0.96764734     0.05200
C55         C  0.28613222  0.21939617  0.02125303     0.05200
C56         C  0.25618522  0.25876204  0.04462350    -0.15300
C57         C  0.21664335  0.28838628  0.02061469     0.05200
C58         C  0.21138952  0.28294320  0.96701129     0.05200
C59         C  0.24372436  0.24546631  0.94308074    -0.15300
H60         H  0.23765418  0.23769423  0.90431049     0.07200
H61         H  0.26594724  0.26824651  0.08235497     0.07200
C62         C  0.20987846  0.97429845  0.28186564     0.05200
C63         C  0.21170482  0.03091372  0.28397059     0.05200
C64         C  0.24939572  0.05662603  0.25353871    -0.15300
C65         C  0.28357401  0.03083641  0.21976272     0.05200
C66         C  0.28128306  0.97517451  0.21747654     0.05200
C67         C  0.24431689  0.94899919  0.24772258    -0.15300
H68         H  0.24491632  0.90734804  0.24561199     0.07200
H69         H  0.25498512  0.09763226  0.25859892     0.07200
C70         C  0.97017412  0.22928160  0.28684830     0.05200
C71         C  0.02693058  0.22772098  0.28465089     0.05200
C72         C  0.05381178  0.26341326  0.25423490    -0.15300
C73         C  0.02737969  0.29896757  0.22297632     0.05200
C74         C  0.97042633  0.29965826  0.22389848     0.05200
C75         C  0.94364723  0.26589203  0.25671032    -0.15300
H76         H  0.90124865  0.27026392  0.25988698     0.07200
H77         H  0.09659942  0.26255483  0.25476371     0.07200
C78         C  0.47153796  0.28835561  0.27698050     0.05200
C79         C  0.52832102  0.28854323  0.27629551     0.05200
C80         C  0.55503591  0.24979703  0.24852666    -0.15300
C81         C  0.52842290  0.21165728  0.22025247     0.05200
C82         C  0.47124307  0.21200473  0.22036586     0.05200
C83         C  0.44482533  0.24981031  0.24965526    -0.15300
H84         H  0.40204420  0.24978391  0.25100575     0.07200
H85         H  0.59788346  0.24962006  0.24871606     0.07200
C86         C  0.28600711  0.29141561  0.46896977     0.05200
C87         C  0.28543962  0.29203203  0.52295077     0.05200
C88         C  0.24523028  0.26383543  0.54732051    -0.15300
C89         C  0.20890400  0.23198127  0.52242095     0.05200
C90         C  0.21073230  0.23012910  0.46898110     0.05200
C91         C  0.24929116  0.25968822  0.44420541    -0.15300
H92         H  0.25042712  0.25815828  0.40403518     0.07200
H93         H  0.23953777  0.26857858  0.58683308     0.07200
C94         C  0.27934604  0.47451363  0.28153583     0.05200
C95         C  0.28296066  0.52988174  0.27923966     0.05200
C96         C  0.25293184  0.55645587  0.24367732    -0.15300
C97         C  0.21939391  0.53063107  0.21061164     0.05200
C98         C  0.21527983  0.47504405  0.21324034     0.05200
C99         C  0.24481656  0.44876942  0.24953036    -0.15300
H100        H  0.23909289  0.40760190  0.25532886     0.07200
H101        H  0.25832571  0.59796755  0.23930598     0.07200
C102        C  0.28064638  0.79078733  0.96843865     0.05200
C103        C  0.28048120  0.79043007  0.02253012     0.05200
C104        C  0.24664416  0.75512826  0.04706108    -0.15300
C105        C  0.21587053  0.71745204  0.02233827     0.05200
C106        C  0.21618258  0.71764039  0.96836452     0.05200
C107        C  0.24942857  0.75337012  0.94369722    -0.15300
H108        H  0.25327626  0.74951745  0.90392081     0.07200
H109        H  0.24206051  0.75929323  0.08669972     0.07200
C110        C  0.78084525  0.28895062  0.97404530     0.05200
C111        C  0.78155071  0.28818466  0.02779264     0.05200
C112        C  0.75001595  0.25060404  0.05218165    -0.15300
C113        C  0.71713448  0.21459601  0.02719284     0.05200
C114        C  0.71536320  0.21689006  0.97309542     0.05200
C115        C  0.74626183  0.25515013  0.94926403    -0.15300
H116        H  0.74189525  0.26141976  0.91007965     0.07200
H117        H  0.75070501  0.24971554  0.09192998     0.07200
C118        C  0.02431792  0.28245773  0.78245810     0.05200
C119        C  0.96734414  0.28186350  0.78338187     0.05200
C120        C  0.94061600  0.25186214  0.74788577    -0.15300
C121        C  0.96761816  0.21869111  0.71485803     0.05200
C122        C  0.02438982  0.21939027  0.71393217     0.05200
C123        C  0.05102217  0.25317648  0.74601571    -0.15300
H124        H  0.09395597  0.25172605  0.74665868     0.07200
H125        H  0.89775063  0.24962045  0.74984501     0.07200
C126        C  0.70476470  0.47780869  0.27170136     0.05200
C127        C  0.70959816  0.53325215  0.27510046     0.05200
C128        C  0.74372578  0.55921045  0.24229344    -0.15300
C129        C  0.77521375  0.53256440  0.20745878     0.05200
C130        C  0.77083127  0.47723823  0.20449315     0.05200
C131        C  0.73411635  0.45181331  0.23481040    -0.15300
H132        H  0.72800314  0.41086645  0.22813774     0.07200
H133        H  0.74934207  0.60064297  0.24713351     0.07200
C134        C  0.29341798  0.52835240  0.72381507     0.05200
C135        C  0.29118200  0.47262673  0.72126971     0.05200
C136        C  0.25148273  0.44695454  0.74846136    -0.15300
C137        C  0.21356014  0.47332451  0.77760410     0.05200
C138        C  0.21627200  0.52890844  0.78063686     0.05200
C139        C  0.25716828  0.55431909  0.75506534    -0.15300
H140        H  0.25991115  0.59591829  0.75869184     0.07200
H141        H  0.24976897  0.40504142  0.74662007     0.07200
C142        C  0.85409639  0.64479590  0.85280621     0.00500
N143        N  0.09599684  0.55970255  0.94090427    -0.03200
N144        N  0.13039639  0.56830400  0.90542920    -0.55300
N145        N  0.05802041  0.59622609  0.05207696    -0.02800
N146        N  0.06675491  0.63102940  0.08650903    -0.57400
N147        N  0.09481616  0.56043135  0.05169561    -0.02400
N148        N  0.12984252  0.56985232  0.08580240    -0.55300
N149        N  0.05989021  0.59610727  0.94207590    -0.02100
N150        N  0.06871935  0.63089080  0.90793682    -0.57800
C151        C  0.11199919  0.61251114  0.88458818     0.99000
C152        C  0.11124503  0.61308363  0.10807001     0.98800
N153        N  0.90405133  0.55990701  0.05230076    -0.03400
N154        N  0.86883236  0.56897590  0.08703866    -0.55900
N155        N  0.94175725  0.59649395  0.94104775    -0.01500
N156        N  0.93281211  0.63078848  0.90612800    -0.57100
N157        N  0.90538280  0.56067917  0.94160103    -0.03400
N158        N  0.87056894  0.56939686  0.90706130    -0.56100
N159        N  0.93988890  0.59617168  0.05133055    -0.01100
N160        N  0.93023694  0.63115024  0.08517680    -0.57200
Mn161      Mn  0.99990695  0.59856563  0.99665761     1.18400
C162        C  0.88670103  0.61309599  0.10809477     1.01100
C163        C  0.88869294  0.61238754  0.88439982     1.01800
N164        N  0.09648939  0.44251981  0.05151342    -0.03400
N165        N  0.13150248  0.43357161  0.08602028    -0.59700
N166        N  0.05932724  0.40813654  0.94111708    -0.02200
N167        N  0.06652527  0.37462622  0.90543312    -0.60400
N168        N  0.09660296  0.44309389  0.94087371    -0.02900
N169        N  0.13072418  0.43418766  0.90504274    -0.60000
N170        N  0.05989707  0.40681493  0.05184839    -0.01800
N171        N  0.06845696  0.37264045  0.08688138    -0.60700
Mn172      Mn  0.09873907  0.50143698  0.99629795     1.10700
C173        C  0.11231494  0.39100753  0.10897554     1.02300
C174        C  0.11047387  0.39178855  0.88259663     1.02400
N175        N  0.90440800  0.44414448  0.94187095    -0.02900
N176        N  0.86856202  0.43510597  0.90814232    -0.58300
N177        N  0.94129188  0.40668128  0.05274864    -0.02200
N178        N  0.93212503  0.37289425  0.08819172    -0.55000
N179        N  0.90526703  0.44319583  0.05241259    -0.03500
N180        N  0.87064651  0.43563186  0.08757474    -0.57900
N181        N  0.94049001  0.40773447  0.94212302    -0.02500
N182        N  0.93034165  0.37266059  0.90858432    -0.55000
Mn183      Mn  0.90234639  0.50196846  0.99707600     1.20200
Mn184      Mn  0.00037445  0.40486289  0.99694499     1.10100
Cl185      Cl  0.00037452  0.50164225  0.99681893    -0.83000
C186        C  0.88614172  0.39083934  0.88683209     0.99300
C187        C  0.88828738  0.39250689  0.11033824     0.99100
C188        C  0.85365445  0.36164808  0.14337248     0.00500
C189        C  0.14226433  0.35772751  0.84990281     0.00500
C190        C  0.14495122  0.64552852  0.85222321     0.00500
C191        C  0.85180210  0.35745146  0.85627520     0.00500
C192        C  0.85326529  0.64668896  0.13998497     0.00500
C193        C  0.71278516  0.47314214  0.71666495     0.05200
C194        C  0.71481969  0.52876907  0.71520585     0.05200
C195        C  0.74613376  0.55509944  0.74974632    -0.15300
C196        C  0.77710831  0.52902380  0.78489504     0.05200
C197        C  0.77754602  0.47318462  0.78506392     0.05200
C198        C  0.74439075  0.44681205  0.75161007    -0.15300
H199        H  0.74368802  0.40487507  0.75252288     0.07200
H200        H  0.74653138  0.59719132  0.74911885     0.07200
C201        C  0.14504559  0.64575943  0.13976687     0.00500
C202        C  0.14592320  0.35784214  0.14039795     0.00500
C203        C  0.27801271  0.03225029  0.77613470     0.05200
C204        C  0.27401412  0.97693844  0.77871928     0.05200
C205        C  0.24011729  0.95129458  0.74566466    -0.15300
C206        C  0.21033772  0.97723659  0.70866410     0.05200
C207        C  0.21220488  0.03368718  0.70737158     0.05200
C208        C  0.24736652  0.05901691  0.74044835    -0.15300
H209        H  0.25339070  0.10032512  0.73705723     0.07200
H210        H  0.23529020  0.91010245  0.75131544     0.07200
C211        C  0.52488309  0.72346044  0.28212921     0.05200
C212        C  0.46822086  0.72442607  0.28253414     0.05200
C213        C  0.44143403  0.75582632  0.24812432    -0.15300
C214        C  0.46833158  0.78721860  0.21365704     0.05200
C215        C  0.52528711  0.78862308  0.21480196     0.05200
C216        C  0.55199217  0.75635747  0.24896630    -0.15300
H217        H  0.59482408  0.75646051  0.24960474     0.07200
H218        H  0.39850765  0.75535587  0.24790327     0.07200
C219        C  0.52832307  0.27260246  0.70346200     0.05200
C220        C  0.47169545  0.27395899  0.70439666     0.05200
C221        C  0.44494659  0.24658340  0.74179384    -0.15300
C222        C  0.47151690  0.21713679  0.77783127     0.05200
C223        C  0.52843264  0.21398205  0.77618001     0.05200
C224        C  0.55513455  0.24209281  0.73873535    -0.15300
H225        H  0.59758529  0.23863697  0.73473423     0.07200
H226        H  0.40205470  0.24837085  0.74298337     0.07200
C227        C  0.64749443  0.14600749  0.85281617     0.00500
N228        N  0.55866537  0.90762676  0.93980754    -0.03200
N229        N  0.56748158  0.87358976  0.90448399    -0.55300
N230        N  0.59342895  0.94341956  0.05185067    -0.02800
N231        N  0.62753594  0.93521849  0.08737634    -0.57400
N232        N  0.55712993  0.90745092  0.05163245    -0.02400
N233        N  0.56564291  0.87344697  0.08695511    -0.55300
N234        N  0.59536505  0.94328879  0.94002088    -0.02100
N235        N  0.63045495  0.93460372  0.90489704    -0.57800
C236        C  0.61156383  0.89183021  0.88209754     0.99000
C237        C  0.60922319  0.89208554  0.10972822     0.98800
N238        N  0.55812571  0.09712490  0.05328687    -0.03400
N239        N  0.56707490  0.13006579  0.08954268    -0.55900
N240        N  0.59561581  0.06087067  0.94079377    -0.01500
N241        N  0.63082191  0.06915749  0.90576706    -0.57100
N242        N  0.55983925  0.09775990  0.94172989    -0.03400
N243        N  0.56999413  0.13270982  0.90781824    -0.56100
N244        N  0.59406164  0.06042771  0.05247436    -0.01100
N245        N  0.62838424  0.06716424  0.08799406    -0.57200
Mn246      Mn  0.59692184  0.00200050  0.99619519     1.18400
C247        C  0.61069480  0.11003461  0.11151417     1.01100
C248        C  0.61317045  0.11329457  0.88442468     1.01800
N249        N  0.43751767  0.90947982  0.05082221    -0.03400
N250        N  0.42821707  0.87504128  0.08520135    -0.59700
N251        N  0.40220164  0.94523866  0.94072752    -0.02200
N252        N  0.36739933  0.93744871  0.90582367    -0.60400
N253        N  0.43892477  0.90934298  0.93952880    -0.02900
N254        N  0.43015595  0.87598459  0.90370049    -0.60000
N255        N  0.40169071  0.94622649  0.05212679    -0.01800
N256        N  0.36711975  0.93809547  0.08770939    -0.60700
Mn257      Mn  0.49801655  0.90600475  0.99537247     1.10700
C258        C  0.38501568  0.89381004  0.10865099     1.02300
C259        C  0.38578503  0.89485660  0.88228543     1.02400
N260        N  0.43887207  0.09706544  0.94070429    -0.02900
N261        N  0.43080152  0.12994909  0.90462571    -0.58300
N262        N  0.40131679  0.06328676  0.05210948    -0.02200
N263        N  0.36639789  0.07213063  0.08726896    -0.55000
N264        N  0.43861324  0.09830683  0.05282231    -0.03500
N265        N  0.43058217  0.13181372  0.08879561    -0.57900
N266        N  0.40227965  0.06136696  0.94060811    -0.02500
N267        N  0.36842444  0.06876003  0.90449519    -0.55000
Mn268      Mn  0.49878177  0.10018367  0.99707145     1.20200
Mn269      Mn  0.39943234  0.00406830  0.99651462     1.10100
Cl270      Cl  0.49834981  0.00311433  0.99621251    -0.83000
C271        C  0.38745676  0.11136292  0.88161725     0.99300
C272        C  0.38613128  0.11402347  0.11088617     0.99100
C273        C  0.64366607  0.85915600  0.14139879     0.00500
C274        C  0.35125432  0.86258527  0.85050524     0.00500
C275        C  0.35387517  0.14511564  0.84997138     0.00500
C276        C  0.64524498  0.85843504  0.85008177     0.00500
C277        C  0.35138478  0.86054682  0.14043715     0.00500
C278        C  0.46962687  0.71382849  0.72124459     0.05200
C279        C  0.52630940  0.71543923  0.71908797     0.05200
C280        C  0.55277219  0.75507284  0.74508751    -0.15300
C281        C  0.52617563  0.79281501  0.77423776     0.05200
C282        C  0.46916081  0.79157763  0.77605415     0.05200
C283        C  0.44282595  0.75190588  0.74974633    -0.15300
H284        H  0.40007712  0.75080515  0.75122043     0.07200
H285        H  0.59550533  0.75621666  0.74273799     0.07200
C286        C  0.35227535  0.14781550  0.14226773     0.00500
C287        C  0.64581439  0.14112453  0.14394867     0.00500
C288        C  0.97064699  0.71583628  0.21502136     0.05200
C289        C  0.02752007  0.71442563  0.21547450     0.05200
C290        C  0.05455563  0.74785952  0.24801383    -0.15300
C291        C  0.02797996  0.78436529  0.27804769     0.05200
C292        C  0.97119286  0.78443713  0.27856563     0.05200
C293        C  0.94410305  0.74936024  0.24797453    -0.15300
H294        H  0.90126190  0.75205927  0.24617766     0.07200
H295        H  0.09744182  0.74678845  0.24880926     0.07200
C296        C  0.72808926  0.02618004  0.20913506     0.05200
C297        C  0.72670105  0.97065543  0.21017040     0.05200
C298        C  0.75519169  0.94442126  0.24756721    -0.15300
C299        C  0.78710046  0.97016908  0.28316310     0.05200
C300        C  0.78821550  0.02671149  0.28203497     0.05200
C301        C  0.75894160  0.05223430  0.24442959    -0.15300
H302        H  0.76192733  0.09365356  0.23973400     0.07200
H303        H  0.75291435  0.90267836  0.24742502     0.07200
C304        C  0.71238238  0.29162546  0.46846326     0.05200
C305        C  0.71305805  0.29277107  0.52222172     0.05200
C306        C  0.75385072  0.26534066  0.54643607    -0.15300
C307        C  0.79012617  0.23289588  0.52159517     0.05200
C308        C  0.78904478  0.23127459  0.46815064     0.05200
C309        C  0.75046768  0.26104433  0.44362078    -0.15300
H310        H  0.74992764  0.26018943  0.40354017     0.07200
H311        H  0.75980104  0.27072610  0.58578451     0.07200
C312        C  0.28096328  0.70973976  0.47002992     0.05200
C313        C  0.27845578  0.70787297  0.52402619     0.05200
C314        C  0.23788753  0.73655164  0.54767832    -0.15300
C315        C  0.20431824  0.77130520  0.52270572     0.05200
C316        C  0.20645974  0.77251944  0.46933914     0.05200
C317        C  0.24339833  0.74051754  0.44494704    -0.15300
H318        H  0.24012131  0.73734065  0.40504340     0.07200
H319        H  0.22997220  0.73053121  0.58652315     0.07200
C320        C  0.85212010  0.15054051  0.35482858     0.00500
N321        N  0.93837984  0.06090960  0.58479958    -0.03200
N322        N  0.92995169  0.09685081  0.61803715    -0.55300
N323        N  0.90121834  0.94503190  0.55227166    -0.02800
N324        N  0.86669967  0.90846891  0.56148894    -0.57400
N325        N  0.93831367  0.94546050  0.58598737    -0.02400
N326        N  0.93022292  0.90942572  0.61918390    -0.55300
N327        N  0.90090243  0.06073740  0.55148784    -0.02100
N328        N  0.86540229  0.09648507  0.56132623    -0.57800
C329        C  0.88511201  0.11953562  0.60239826     0.99000
C330        C  0.88624111  0.88581811  0.60290789     0.98800
N331        N  0.93925062  0.94414217  0.40673055    -0.03400
N332        N  0.93154226  0.90767624  0.37399377    -0.55900
N333        N  0.90175109  0.06001581  0.43870466    -0.01500
N334        N  0.86634516  0.09558371  0.42874495    -0.57100
N335        N  0.93886354  0.05930365  0.40463107    -0.03400
N336        N  0.92981368  0.09397056  0.37017771    -0.56100
N337        N  0.90169473  0.94429032  0.44029881    -0.01100
N338        N  0.86706398  0.90782638  0.43141482    -0.45200
Mn339      Mn  0.89878920  0.00262501  0.49571282     1.18400
C340        C  0.88715003  0.88460455  0.39034342     1.01100
C341        C  0.88553271  0.11762541  0.38682883     1.01800
N342        N  0.05773391  0.94567901  0.58708238    -0.03400
N343        N  0.06653056  0.91058531  0.62119982    -0.59700
N344        N  0.09506598  0.06095614  0.55183219    -0.02200
N345        N  0.12994832  0.09708823  0.56120757    -0.60400
N346        N  0.05748596  0.06089577  0.58539142    -0.02900
N347        N  0.06548172  0.09685085  0.61856843    -0.60000
N348        N  0.09521631  0.94549516  0.55336010    -0.01800
N349        N  0.13083356  0.91018807  0.56344496    -0.60700
Mn350      Mn  0.99787718  0.00324201  0.58782379     1.10700
C351        C  0.11118310  0.88740181  0.60477441     1.02300
C352        C  0.10998044  0.11994697  0.60253323     1.02400
N353        N  0.05828238  0.05955915  0.40586961    -0.02900
N354        N  0.06647662  0.09561877  0.37270222    -0.58300
N355        N  0.09573397  0.94445286  0.44021389    -0.02200
N356        N  0.13131479  0.90889653  0.42998246    -0.55000
N357        N  0.05802849  0.94414180  0.40711071    -0.03500
N358        N  0.06626671  0.90825072  0.37374654    -0.57900
N359        N  0.09522205  0.06005160  0.43974230    -0.02500
N360        N  0.12970150  0.09663167  0.43071863    -0.55000
Mn361      Mn  0.99869594  0.00178886  0.40407907     1.20200
Mn362      Mn  0.09793925  0.00266099  0.49624230     1.10100
Cl363      Cl  0.99836750  0.00264345  0.49598211    -0.83000
C364        C  0.11038131  0.11922414  0.38921969     0.99300
C365        C  0.11134944  0.88580260  0.38899491     0.99100
C366        C  0.85567879  0.84995040  0.35832718     0.00500
C367        C  0.14328222  0.85175524  0.35629744     0.00500
C368        C  0.14449837  0.85425330  0.63662667     0.00500
C369        C  0.85297864  0.15360579  0.63486811     0.00500
C370        C  0.85399185  0.85188308  0.63537531     0.00500
C371        C  0.71460965  0.70964269  0.47058243     0.05200
C372        C  0.71450093  0.70947087  0.52466617     0.05200
C373        C  0.75205526  0.74060605  0.54913701    -0.15300
C374        C  0.78958273  0.77125365  0.52407888     0.05200
C375        C  0.79022645  0.77065025  0.47063296     0.05200
C376        C  0.75297675  0.73977924  0.44587083    -0.15300
H377        H  0.75349791  0.74014116  0.40572330     0.07200
H378        H  0.75201797  0.74185469  0.58923100     0.07200
C379        C  0.14280854  0.15317173  0.35701064     0.00500
C380        C  0.14143554  0.15441719  0.63491485     0.00500
C381        C  0.97055135  0.71395491  0.77625960     0.05200
C382        C  0.02735444  0.71465234  0.77606491     0.05200
C383        C  0.05375714  0.74518393  0.74049620    -0.15300
C384        C  0.02674220  0.77891645  0.70782020     0.05200
C385        C  0.96993190  0.78060693  0.71046995     0.05200
C386        C  0.94338672  0.74682255  0.74313641    -0.15300
H387        H  0.90049501  0.74709360  0.74332832     0.07200
H388        H  0.09636561  0.74343969  0.73992827     0.07200
C389        C  0.70989596  0.97490520  0.76975935     0.05200
C390        C  0.71062927  0.03065153  0.77063428     0.05200
C391        C  0.74631655  0.05676036  0.73885505    -0.15300
C392        C  0.78272245  0.03126498  0.70662985     0.05200
C393        C  0.78214986  0.97457484  0.70582379     0.05200
C394        C  0.74454907  0.94899273  0.73642740    -0.15300
H395        H  0.73976223  0.90780701  0.73223438     0.07200
H396        H  0.74328171  0.09838010  0.73818851     0.07200
C397        C  0.78322423  0.71799066  0.02373825     0.05200
C398        C  0.78525798  0.71892493  0.97003558     0.05200
C399        C  0.75612312  0.75795995  0.94537747    -0.15300
C400        C  0.71970721  0.79172811  0.96941570     0.05200
C401        C  0.71704777  0.78995576  0.02348076     0.05200
C402        C  0.74842502  0.75253178  0.04822658    -0.15300
H403        H  0.74324799  0.74724260  0.08773922     0.07200
H404        H  0.76381287  0.76303568  0.90640849     0.07200
C405        C  0.89053849  0.81125741  0.66109997    -0.13500
C406        C  0.93693873  0.82145245  0.68535388    -0.28700
H407        H  0.87949307  0.77065346  0.65732893     0.15500
H408        H  0.95038689  0.86087460  0.69053136     0.16100
C409        C  0.81672903  0.94073245  0.67139272    -0.13500
C410        C  0.82345469  0.88697570  0.67390857    -0.28700
H411        H  0.83565333  0.96096251  0.64112696     0.15500
H412        H  0.80495378  0.86545257  0.70382597     0.16100
C413        C  0.81452552  0.82277238  0.60138131    -0.13500
C414        C  0.82787122  0.80109068  0.55601363    -0.28700
H415        H  0.77333057  0.82242497  0.61321424     0.15500
H416        H  0.86824671  0.80457594  0.54242091     0.16100
C417        C  0.82086355  0.11910241  0.67235597    -0.13500
C418        C  0.81814867  0.06498204  0.67305099    -0.28700
H419        H  0.79798951  0.14179780  0.69865412     0.15500
H420        H  0.84223849  0.04401831  0.64655670     0.16100
C421        C  0.05796526  0.81025466  0.67019720    -0.13500
C422        C  0.11143365  0.82030311  0.67271553    -0.28700
H423        H  0.03552488  0.82409276  0.63859823     0.15500
H424        H  0.13423870  0.80480702  0.70332726     0.16100
C425        C  0.81645786  0.82031475  0.39245322    -0.13500
C426        C  0.82907627  0.79996171  0.43841374    -0.28700
H427        H  0.77549335  0.81922129  0.38038076     0.15500
H428        H  0.86904917  0.80442226  0.45239772     0.16100
C429        C  0.18203791  0.82178843  0.39064792    -0.13500
C430        C  0.16843325  0.80186507  0.43660995    -0.28700
H431        H  0.22325653  0.81991615  0.37890349     0.15500
H432        H  0.12805065  0.80633583  0.45004369     0.16100
C433        C  0.17897334  0.81880181  0.60265400    -0.13500
C434        C  0.16737429  0.80382633  0.55446418    -0.28700
H435        H  0.21679008  0.80739945  0.61837248     0.15500
H436        H  0.13019931  0.81559086  0.53781103     0.16100
C437        C  0.81506230  0.18275453  0.38915533    -0.13500
C438        C  0.82784401  0.20183279  0.43559402    -0.28700
H439        H  0.77408205  0.18498382  0.37732067     0.15500
H440        H  0.86763296  0.19619598  0.44975845     0.16100
C441        C  0.82852590  0.20364761  0.55408078    -0.13500
C442        C  0.81495736  0.18431913  0.60038729    -0.28700
H443        H  0.86849226  0.19803554  0.53994264     0.15500
H444        H  0.77390665  0.18727239  0.61247323     0.16100
C445        C  0.81800608  0.93718233  0.32062017    -0.13500
C446        C  0.82499478  0.88359384  0.31941952    -0.28700
H447        H  0.83484202  0.95818809  0.35142450     0.15500
H448        H  0.80767765  0.86099807  0.28980184     0.16100
C449        C  0.82124560  0.06035745  0.31700769    -0.13500
C450        C  0.81805376  0.11409496  0.32129528    -0.28700
H451        H  0.85022266  0.04002279  0.33907005     0.15500
H452        H  0.78869768  0.13523145  0.30019385     0.16100
C453        C  0.06134746  0.82425134  0.30383158    -0.13500
C454        C  0.10649177  0.81230737  0.32970811    -0.28700
H455        H  0.04954752  0.86425334  0.29822765     0.15500
H456        H  0.11620951  0.77135571  0.33405983     0.16100
C457        C  0.93779959  0.82384313  0.30511194    -0.13500
C458        C  0.89368458  0.81092920  0.33226532    -0.28700
H459        H  0.94784681  0.86401235  0.29823066     0.15500
H460        H  0.88542512  0.76982098  0.33725518     0.16100
C461        C  0.67371637  0.10406829  0.18159184    -0.13500
C462        C  0.70125424  0.05926960  0.17028836    -0.28700
H463        H  0.66908692  0.11367313  0.22081475     0.15500
H464        H  0.70716396  0.04741428  0.13202545     0.16100
C465        C  0.68015538  0.89137818  0.81433621    -0.13500
C466        C  0.67258722  0.94285398  0.80195917    -0.28700
H467        H  0.71455583  0.87102065  0.79978474     0.15500
H468        H  0.63769877  0.96253959  0.81607352     0.16100
C469        C  0.68170370  0.82526645  0.88509382    -0.13500
C470        C  0.68558445  0.82741125  0.93682717    -0.28700
H471        H  0.70459157  0.79675257  0.86465306     0.15500
H472        H  0.66217158  0.85589370  0.95665609     0.16100
C473        C  0.60959004  0.82116829  0.81959491    -0.13500
C474        C  0.55982968  0.83224164  0.80154718    -0.28700
H475        H  0.62397156  0.78149881  0.81629294     0.15500
H476        H  0.54328557  0.87072451  0.80749547     0.16100
C477        C  0.38667836  0.82152350  0.82373252    -0.13500
C478        C  0.43516006  0.83185783  0.80227799    -0.28700
H479        H  0.37342059  0.78147950  0.82530571     0.15500
H480        H  0.45006572  0.87130030  0.80365005     0.16100
C481        C  0.68012301  0.82330900  0.05558762    -0.13500
C482        C  0.68445965  0.83077631  0.10674772    -0.28700
H483        H  0.64669547  0.84009250  0.03646335     0.15500
H484        H  0.71803749  0.81453032  0.12633167     0.16100
C485        C  0.70026531  0.93824302  0.17066167    -0.13500
C486        C  0.67157443  0.89421335  0.18056072    -0.28700
H487        H  0.70700754  0.95033418  0.13260800     0.15500
H488        H  0.66576115  0.88396297  0.21946093     0.16100
C489        C  0.67235336  0.06368848  0.80104497    -0.13500
C490        C  0.68514346  0.11106400  0.82116913    -0.28700
H491        H  0.63244918  0.04927998  0.80637444     0.15500
H492        H  0.72590102  0.12398572  0.81768898     0.16100
C493        C  0.39022976  0.17075336  0.81019842    -0.13500
C494        C  0.43783327  0.19482426  0.81861473    -0.28700
H495        H  0.37863308  0.16549489  0.77158980     0.15500
H496        H  0.45202510  0.20167393  0.85589890     0.16100
C497        C  0.61377681  0.18133044  0.81809823    -0.13500
C498        C  0.55998196  0.17809339  0.80948943    -0.28700
H499        H  0.63615515  0.21202386  0.80038778     0.15500
H500        H  0.53741718  0.14659343  0.82548747     0.16100
C501        C  0.38703469  0.83476118  0.18089219    -0.13500
C502        C  0.43565416  0.81162999  0.17325761    -0.28700
H503        H  0.37365238  0.83871679  0.21925115     0.15500
H504        H  0.45163038  0.80636606  0.13626460     0.16100
C505        C  0.55770432  0.82699315  0.18527268    -0.13500
C506        C  0.60878264  0.81841041  0.16888858    -0.28700
H507        H  0.53916900  0.86447998  0.17871855     0.15500
H508        H  0.62607370  0.78008679  0.17400913     0.16100
C509        C  0.17594597  0.94411781  0.67454440    -0.13500
C510        C  0.18077762  0.89075382  0.66806996    -0.28700
H511        H  0.14456666  0.96442787  0.65545539     0.15500
H512        H  0.21241331  0.87024919  0.68680777     0.16100
C513        C  0.17205841  0.12018790  0.67359033    -0.13500
C514        C  0.18042644  0.06685720  0.67078541    -0.28700
H515        H  0.18849008  0.14173200  0.70446321     0.15500
H516        H  0.16427987  0.04619194  0.63938637     0.16100
C517        C  0.31808435  0.06230217  0.80610960    -0.13500
C518        C  0.31106418  0.11232685  0.82281836    -0.28700
H519        H  0.35533773  0.04256018  0.81329885     0.15500
H520        H  0.27311293  0.13114034  0.81629694     0.16100
C521        C  0.32396109  0.89777144  0.81075141    -0.13500
C522        C  0.29940635  0.94478524  0.81904584    -0.28700
H523        H  0.32737753  0.88510457  0.77222464     0.15500
H524        H  0.29488015  0.96012847  0.85626544     0.16100
C525        C  0.10953293  0.68633265  0.16692555    -0.13500
C526        C  0.06004716  0.67603607  0.18599692    -0.28700
H527        H  0.12452594  0.72574178  0.16942741     0.15500
H528        H  0.04323223  0.63760028  0.18133570     0.16100
C529        C  0.82809744  0.68817428  0.10486063    -0.13500
C530        C  0.81246887  0.67913688  0.05612916    -0.28700
H531        H  0.82348507  0.72700383  0.12015263     0.15500
H532        H  0.81929039  0.64129538  0.03960362     0.16100
C533        C  0.88872041  0.67066575  0.18138680    -0.13500
C534        C  0.93800987  0.69214063  0.17449354    -0.28700
H535        H  0.87458024  0.66695599  0.21951985     0.15500
H536        H  0.95447947  0.69744565  0.13773750     0.16100
C537        C  0.80866753  0.39178265  0.83116616    -0.13500
C538        C  0.81721478  0.44131472  0.81360011    -0.28700
H539        H  0.76916024  0.37552833  0.82859070     0.15500
H540        H  0.85607530  0.45861820  0.81759388     0.16100
C541        C  0.10958718  0.66964886  0.81067826    -0.13500
C542        C  0.06016331  0.69138801  0.81708505    -0.28700
H543        H  0.12397996  0.66538050  0.77267336     0.15500
H544        H  0.04329182  0.69633242  0.85376906     0.16100
C545        C  0.81973125  0.68279593  0.93843897    -0.13500
C546        C  0.81389592  0.67392290  0.88760103    -0.28700
H547        H  0.85242677  0.66490000  0.95797932     0.15500
H548        H  0.78059147  0.69127005  0.86836294     0.16100
C549        C  0.88849459  0.68522671  0.82456264    -0.13500
C550        C  0.93866943  0.67585698  0.80649264    -0.28700
H551        H  0.87178656  0.72392319  0.82033082     0.15500
H552        H  0.95681443  0.63807536  0.81248570     0.16100
C553        C  0.82692848  0.60856715  0.81425438    -0.13500
C554        C  0.80223295  0.56213312  0.82409279    -0.28700
H555        H  0.83152121  0.61932102  0.77533973     0.15500
H556        H  0.79577868  0.54891313  0.86177078     0.16100
C557        C  0.18729640  0.60999016  0.82790770    -0.13500
C558        C  0.17585789  0.56284163  0.80629878    -0.28700
H559        H  0.22829747  0.62202896  0.83112443     0.15500
H560        H  0.13513173  0.54952326  0.80628788     0.16100
C561        C  0.18299508  0.39229801  0.82238935    -0.13500
C562        C  0.17223243  0.44065244  0.80308017    -0.28700
H563        H  0.22379586  0.37869560  0.82217106     0.15500
H564        H  0.13245906  0.45650603  0.80633021     0.16100
C565        C  0.81692679  0.56328269  0.18101986    -0.13500
C566        C  0.80941176  0.61316587  0.16428013    -0.28700
H567        H  0.85552920  0.54489312  0.17735729     0.15500
H568        H  0.76995815  0.63006748  0.16671246     0.16100
C569        C  0.82498258  0.39927961  0.17986029    -0.13500
C570        C  0.79856483  0.44396034  0.16709834    -0.28700
H571        H  0.82856130  0.39083174  0.21938658     0.15500
H572        H  0.79197949  0.45462233  0.12871981     0.16100
C573        C  0.05819225  0.18051383  0.68699473    -0.13500
C574        C  0.10319269  0.19339900  0.66103147    -0.28700
H575        H  0.04780399  0.14036519  0.69335078     0.15500
H576        H  0.11188656  0.23450577  0.65677710     0.16100
C577        C  0.93460857  0.17950309  0.68815345    -0.13500
C578        C  0.88987214  0.19231817  0.66214250    -0.28700
H579        H  0.94579255  0.13935494  0.69390073     0.15500
H580        H  0.88061878  0.23344607  0.65837931     0.16100
C581        C  0.93398573  0.30549091  0.82393670    -0.13500
C582        C  0.88700769  0.33121993  0.81562966    -0.28700
H583        H  0.94756892  0.29813013  0.86136239     0.15500
H584        H  0.87505036  0.33672194  0.77714707     0.16100
C585        C  0.05828363  0.30665024  0.82182399    -0.13500
C586        C  0.10492745  0.33184272  0.81143853    -0.28700
H587        H  0.04578712  0.29989417  0.85980091     0.15500
H588        H  0.11520770  0.33716805  0.77240924     0.16100
C589        C  0.68212401  0.17914437  0.05907758    -0.13500
C590        C  0.68667216  0.17019670  0.11003700    -0.28700
H591        H  0.64882574  0.16250924  0.03997394     0.15500
H592        H  0.71962498  0.18631970  0.13033691     0.16100
C593        C  0.68165486  0.18148302  0.94007782    -0.13500
C594        C  0.68149208  0.18070879  0.88813549    -0.28700
H595        H  0.65636263  0.15463420  0.95955908     0.15500
H596        H  0.70807909  0.20532615  0.86740777     0.16100
C597        C  0.81622081  0.32400079  0.05910094    -0.13500
C598        C  0.81386816  0.33049554  0.11053137    -0.28700
H599        H  0.84660226  0.34414999  0.03832167     0.15500
H600        H  0.78342097  0.31114506  0.13192742     0.16100
C601        C  0.81083376  0.32717847  0.94136049    -0.13500
C602        C  0.82614759  0.31736407  0.89248754    -0.28700
H603        H  0.81795185  0.36511137  0.95735567     0.15500
H604        H  0.82151753  0.27832080  0.87785875     0.16100
C605        C  0.18105175  0.68207844  0.05417355    -0.13500
C606        C  0.18582610  0.67410131  0.10529815    -0.28700
H607        H  0.14847148  0.66431593  0.03455508     0.15500
H608        H  0.21872079  0.69118457  0.12505275     0.16100
C609        C  0.18668311  0.67879566  0.93588070    -0.13500
C610        C  0.17118442  0.68706201  0.88683335    -0.28700
H611        H  0.17939436  0.64132435  0.95279707     0.15500
H612        H  0.17607994  0.72548304  0.87090413     0.16100
C613        C  0.31108013  0.82828874  0.05537093    -0.13500
C614        C  0.32440311  0.82011402  0.10510845    -0.28700
H615        H  0.32104932  0.86494848  0.03809220     0.15500
H616        H  0.31632394  0.78258457  0.12173792     0.16100
C617        C  0.31049266  0.83440657  0.88535925    -0.13500
C618        C  0.31563847  0.82596815  0.93643627    -0.28700
H619        H  0.27718569  0.81777000  0.86585255     0.15500
H620        H  0.34864424  0.84316380  0.95586545     0.16100
C621        C  0.17733607  0.44380879  0.18253999    -0.13500
C622        C  0.18318940  0.39151098  0.17248466    -0.28700
H623        H  0.14265161  0.46477782  0.16987277     0.15500
H624        H  0.21763891  0.37103366  0.18648313     0.16100
C625        C  0.17157091  0.61017442  0.17920836    -0.13500
C626        C  0.19590471  0.56324450  0.17034686    -0.28700
H627        H  0.16680356  0.62175418  0.21795095     0.15500
H628        H  0.20307058  0.54912361  0.13303986     0.16100
C629        C  0.16917380  0.20368012  0.55453942    -0.13500
C630        C  0.18089572  0.18436245  0.60115168    -0.28700
H631        H  0.12962107  0.19862149  0.53975234     0.15500
H632        H  0.22152232  0.18662115  0.61409636     0.16100
C633        C  0.18360250  0.18066115  0.39091981    -0.13500
C634        C  0.17144305  0.20184742  0.43679356    -0.28700
H635        H  0.22465377  0.17988336  0.37867230     0.15500
H636        H  0.13104446  0.19943179  0.45053743     0.16100
C637        C  0.61112940  0.18153977  0.17265399    -0.13500
C638        C  0.56208559  0.17154071  0.19313875    -0.28700
H639        H  0.62541170  0.22127111  0.17315878     0.15500
H640        H  0.54621927  0.13260884  0.18986460     0.16100
C641        C  0.38727094  0.18464572  0.17401298    -0.13500
C642        C  0.43750095  0.17378020  0.19136533    -0.28700
H643        H  0.37141561  0.22350256  0.17939102     0.15500
H644        H  0.45447529  0.13579852  0.18387811     0.16100
C645        C  0.06049055  0.33479570  0.19084376    -0.13500
C646        C  0.11103128  0.32339376  0.17457806    -0.28700
H647        H  0.04282196  0.37163157  0.18044455     0.15500
H648        H  0.12811130  0.28594877  0.18387701     0.16100
C649        C  0.88514335  0.18704792  0.32079618    -0.13500
C650        C  0.93883592  0.19603732  0.32295612    -0.28700
H651        H  0.86222212  0.20525737  0.29161543     0.15500
H652        H  0.96160244  0.17970393  0.35318036     0.16100
C653        C  0.93691526  0.33679987  0.19398829    -0.13500
C654        C  0.88905609  0.32367536  0.17344845    -0.28700
H655        H  0.95152130  0.37604600  0.18910725     0.15500
H656        H  0.87614232  0.28354484  0.17612194     0.16100
C657        C  0.10653057  0.19487978  0.33264630    -0.13500
C658        C  0.05977425  0.18581649  0.30849297    -0.28700
H659        H  0.11816240  0.23520470  0.33737649     0.15500
H660        H  0.04578448  0.14666194  0.30274090     0.16100
C661        C  0.32076551  0.94203581  0.18901285    -0.13500
C662        C  0.30916651  0.89551397  0.16644649    -0.28700
H663        H  0.36152402  0.95520002  0.18832534     0.15500
H664        H  0.26812839  0.88310642  0.16497644     0.16100
C665        C  0.17177013  0.11820981  0.31740620    -0.13500
C666        C  0.17860035  0.06448717  0.31972292    -0.28700
H667        H  0.18897833  0.13965942  0.28674495     0.15500
H668        H  0.16118478  0.04411877  0.35074838     0.16100
C669        C  0.32205108  0.06273257  0.18853679    -0.13500
C670        C  0.31608817  0.11472817  0.17708711    -0.28700
H671        H  0.35643232  0.04228401  0.17432018     0.15500
H672        H  0.28229889  0.13566824  0.19213117     0.16100
C673        C  0.17494419  0.94043344  0.31573484    -0.13500
C674        C  0.17469738  0.88628183  0.31837299    -0.28700
H675        H  0.14906367  0.96145496  0.34069704     0.15500
H676        H  0.19965602  0.86356695  0.29385123     0.16100
C677        C  0.17493815  0.31665413  0.93476333    -0.13500
C678        C  0.17261798  0.31739896  0.88291256    -0.28700
H679        H  0.15089227  0.34423086  0.95490434     0.15500
H680        H  0.19667119  0.29089378  0.86122258     0.16100
C681        C  0.32117066  0.18519489  0.05428093    -0.13500
C682        C  0.31693011  0.18089765  0.10598646    -0.28700
H683        H  0.35138358  0.16318559  0.03487553     0.15500
H684        H  0.28598240  0.20242163  0.12509647     0.16100
C685        C  0.18281343  0.32428967  0.05325633    -0.13500
C686        C  0.17955005  0.32230022  0.10496005    -0.28700
H687        H  0.15994311  0.35325952  0.03395114     0.15500
H688        H  0.20144472  0.29272321  0.12482293     0.16100
C689        C  0.31563639  0.17873468  0.93559700    -0.13500
C690        C  0.32612301  0.18542837  0.88508319    -0.28700
H691        H  0.32996020  0.14433160  0.95426765     0.15500
H692        H  0.31218831  0.22040957  0.86677406     0.16100
C693        C  0.60665077  0.68563154  0.66890768    -0.13500
C694        C  0.55964926  0.67520036  0.69265025    -0.28700
H695        H  0.61961733  0.72568124  0.66575937     0.15500
H696        H  0.54553759  0.63543955  0.69306415     0.16100
C697        C  0.66631977  0.60799275  0.68333785    -0.13500
C698        C  0.69057797  0.56097076  0.67493755    -0.28700
H699        H  0.66145017  0.62023987  0.72185316     0.15500
H700        H  0.69696460  0.54633517  0.63769347     0.16100
C701        C  0.68278280  0.66819977  0.60749770    -0.13500
C702        C  0.67498288  0.68085976  0.55759519    -0.28700
H703        H  0.72134351  0.67414886  0.62399884     0.15500
H704        H  0.63749036  0.67199881  0.54038794     0.16100
C705        C  0.39387268  0.32909196  0.67880482    -0.13500
C706        C  0.43828180  0.30103482  0.66639646    -0.28700
H707        H  0.38477191  0.33375350  0.71818194     0.15500
H708        H  0.44952769  0.29524656  0.62785229     0.16100
C709        C  0.31741744  0.39241323  0.67142072    -0.13500
C710        C  0.33024503  0.43906723  0.69327151    -0.28700
H711        H  0.27621882  0.38050309  0.67088474     0.15500
H712        H  0.37077967  0.45270462  0.69085475     0.16100
C713        C  0.32212391  0.32451532  0.55517666    -0.13500
C714        C  0.32726857  0.32023785  0.60668125    -0.28700
H715        H  0.34326751  0.35464613  0.53546412     0.15500
H716        H  0.30743845  0.28914689  0.62628862     0.16100
C717        C  0.67387123  0.39384507  0.31289189    -0.13500
C718        C  0.66852070  0.44647937  0.30455107    -0.28700
H719        H  0.70498440  0.37235257  0.29399171     0.15500
H720        H  0.63685700  0.46825350  0.32226307     0.16100
C721        C  0.68272758  0.33483418  0.38763919    -0.13500
C722        C  0.67204581  0.31857419  0.43579349    -0.28700
H723        H  0.72359819  0.33380600  0.37492127     0.15500
H724        H  0.63260233  0.32314974  0.45123807     0.16100
C725        C  0.60888967  0.31940252  0.32453143    -0.13500
C726        C  0.56116020  0.32936211  0.30226626    -0.28700
H727        H  0.62273675  0.27942527  0.32630144     0.15500
H728        H  0.54569898  0.36874011  0.30334562     0.16100
C729        C  0.38980508  0.67194352  0.31219084    -0.13500
C730        C  0.43563308  0.69823033  0.32179912    -0.28700
H731        H  0.37842480  0.66772440  0.27340295     0.15500
H732        H  0.44918576  0.70384448  0.35951135     0.16100
C733        C  0.32649355  0.68351748  0.38730953    -0.13500
C734        C  0.31632075  0.67574480  0.43770966    -0.28700
H735        H  0.31290811  0.71887373  0.36951665     0.15500
H736        H  0.33079769  0.64106308  0.45560902     0.16100
C737        C  0.31307810  0.61072583  0.32444119    -0.13500
C738        C  0.32214600  0.56083585  0.30824687    -0.28700
H739        H  0.27413167  0.62788013  0.31894139     0.15500
H740        H  0.36031529  0.54244451  0.31445929     0.16100
C741        C  0.68257675  0.66901914  0.38833050    -0.13500
C742        C  0.67378787  0.68382164  0.43751463    -0.28700
H743        H  0.72270839  0.66937593  0.37373888     0.15500
H744        H  0.63457881  0.67982481  0.45341516     0.16100
C745        C  0.60612473  0.69091433  0.32909952    -0.13500
C746        C  0.55638866  0.68343226  0.31012640    -0.28700
H747        H  0.62304468  0.72963367  0.32810036     0.15500
H748        H  0.53848770  0.64526786  0.31305588     0.16100
C749        C  0.66397359  0.61267476  0.31043800    -0.13500
C750        C  0.68724271  0.56492031  0.31680710    -0.28700
H751        H  0.65896233  0.62634325  0.27243083     0.15500
H752        H  0.69433815  0.54911385  0.35338757     0.16100
C753        C  0.32950872  0.39593970  0.31183367    -0.13500
C754        C  0.30417002  0.44222684  0.32109473    -0.28700
H755        H  0.33419259  0.38418621  0.27314045     0.15500
H756        H  0.29692203  0.45593075  0.35851498     0.16100
C757        C  0.31499571  0.33595182  0.38774304    -0.13500
C758        C  0.32526686  0.31987042  0.43611263    -0.28700
H759        H  0.27479687  0.33346167  0.37383978     0.15500
H760        H  0.36426535  0.32543030  0.45170922     0.16100
C761        C  0.39086464  0.31901142  0.32628822    -0.13500
C762        C  0.43839065  0.32902050  0.30330530    -0.28700
H763        H  0.37758293  0.27901737  0.32890100     0.15500
H764        H  0.45307681  0.36856313  0.30342561     0.16100
C765        C  0.68183573  0.39141316  0.67134888    -0.13500
C766        C  0.67437866  0.44216457  0.68609895    -0.28700
H767        H  0.71897456  0.37220233  0.68014054     0.15500
H768        H  0.63758796  0.46193984  0.67726591     0.16100
C769        C  0.60515700  0.32867558  0.67802123    -0.13500
C770        C  0.56153000  0.30012621  0.66544131    -0.28700
H771        H  0.61411713  0.33236021  0.71744241     0.15500
H772        H  0.55047231  0.29489721  0.62688798     0.16100
C773        C  0.67126106  0.32116052  0.60568196    -0.13500
C774        C  0.67597113  0.32526350  0.55426386    -0.28700
H775        H  0.69121234  0.28992468  0.62505396     0.15500
H776        H  0.65440633  0.35517370  0.53458049     0.16100
C777        C  0.38793404  0.68404567  0.67485924    -0.13500
C778        C  0.43682108  0.67349802  0.69449609    -0.28700
H779        H  0.37356680  0.72384394  0.67659129     0.15500
H780        H  0.45340379  0.63483283  0.68988761     0.16100
C781        C  0.31694709  0.67751401  0.60889000    -0.13500
C782        C  0.31564267  0.67624480  0.55698417    -0.28700
H783        H  0.29136440  0.70390255  0.62912491     0.15500
H784        H  0.34337368  0.65171144  0.53724918     0.16100
C785        C  0.31982247  0.61162970  0.67947911    -0.13500
C786        C  0.33122248  0.56139742  0.69398751    -0.28700
H787        H  0.28162702  0.62838336  0.68897403     0.15500
H788        H  0.36854495  0.54375088  0.68298487     0.16100
loop_ 
_geom_bond_atom_site_label_1 
_geom_bond_atom_site_label_2 
_geom_bond_distance 
_geom_bond_site_symmetry_2 
_ccdc_geom_bond_type 
C1           C10   1.465       .  S
C1          C777   1.548       .  S
C1          C781   1.564       .  S
C1          C785   1.543       .  S
N2            N3   1.305       .  A
N2            N8   1.305       .  A
N2          Mn31   2.132       .  S
N3           C10   1.351       .  A
N4            N6   1.303       .  A
N4            N5   1.301       .  A
N4          Mn20   2.105       .  S
N5           C11   1.342       .  A
N6            N7   1.306       .  A
N6          Mn31   2.114       .  S
N7           C11   1.351       .  A
N8            N9   1.305       .  A
N8          Mn20   2.099       .  S
N9           C10   1.343       .  A
C11          C50   1.476       .  S
N12          N18   1.304       .  A
N12          N13   1.300       .  A
N12         Mn42   2.118       .  S
N13          C21   1.344       .  A
N14          N15   1.308       .  A
N14          N16   1.304       .  A
N14         Mn20   2.109       .  S
N15          C22   1.349       .  A
N16          N17   1.299       .  A
N16         Mn42   2.112       .  S
N17          C22   1.342       .  A
N18          N19   1.307       .  A
N18         Mn20   2.103       .  S
N19          C21   1.347       .  A
Mn20        Cl44   2.484       .  S
C21          C49   1.474       .  S
C22          C53   1.471       .  S
N23          N24   1.299       .  A
N23          N29   1.303       .  A
N23         Mn31   2.125       .  S
N24          C32   1.345       .  A
N25          N27   1.304       .  A
N25          N26   1.300       .  A
N25         Mn43   2.107       .  S
N26          C33   1.341       .  A
N27          N28   1.306       .  A
N27         Mn31   2.109       .  S
N28          C33   1.350       .  A
N29          N30   1.308       .  A
N29         Mn43   2.096       .  S
N30          C32   1.346       .  A
Mn31        Cl44   2.490       .  S
C32          C48   1.475       .  S
C33          C52   1.468       .  S
N34          N35   1.308       .  A
N34          N40   1.303       .  A
N34         Mn42   2.119       .  S
N35          C45   1.352       .  A
N36          N37   1.306       .  A
N36          N38   1.304       .  A
N36         Mn43   2.107       .  S
N37          C46   1.345       .  A
N38          N39   1.304       .  A
N38         Mn42   2.125       .  S
N39          C46   1.349       .  A
N40          N41   1.302       .  A
N40         Mn43   2.109       .  S
N41          C45   1.343       .  A
Mn42        Cl44   2.488       .  S
Mn43        Cl44   2.473       .  S
C45          C47   1.477       .  S
C46          C51   1.470       .  S
C47         C765   1.554       .  S
C47         C769   1.550       .  S
C47         C773   1.553       .  S
C48         C753   1.550       .  S
C48         C757   1.557       .  S
C48         C761   1.549       .  S
C49         C741   1.558       .  S
C49         C745   1.551       .  S
C49         C749   1.551       .  S
C50         C729   1.551       .  S
C50         C733   1.557       .  S
C50         C737   1.546       .  S
C51         C717   1.547       .  S
C51         C721   1.555       .  S
C51         C725   1.549       .  S
C52         C705   1.547       .  S
C52         C709   1.548       .  S
C52         C714   1.561       .  S
C53         C693   1.547       .  S
C53         C697   1.551       .  S
C53         C701   1.561       .  S
C54          C55   1.447   1_556  A
C54          C59   1.412       .  A
C54         C689   1.520       .  S
C55          C56   1.406       .  A
C55         C681   1.531       .  S
C56          C57   1.412       .  A
C56          H61   1.072       .  S
C57          C58   1.453   1_554  A
C57         C685   1.528       .  S
C58          C59   1.412       .  A
C58         C677   1.533       .  S
C59          H60   1.072       .  S
C62          C63   1.459   1_565  A
C62          C67   1.416       .  A
C62         C673   1.538       .  S
C63          C64   1.418       .  A
C63         C666   1.533       .  S
C64          C65   1.412       .  A
C64          H69   1.074       .  S
C65          C66   1.435   1_545  A
C65         C669   1.523       .  S
C66          C67   1.408       .  A
C66         C661   1.512       .  S
C67          H68   1.073       .  S
C70          C71   1.434   1_655  A
C70          C75   1.411       .  A
C70         C650   1.516       .  S
C71          C72   1.404       .  A
C71         C658   1.503       .  S
C72          C73   1.410       .  A
C72          H77   1.080       .  S
C73          C74   1.438   1_455  A
C73         C645   1.515       .  S
C74          C75   1.410       .  A
C74         C653   1.508       .  S
C75          H76   1.078       .  S
C78          C79   1.433       .  A
C78          C83   1.409       .  A
C78         C762   1.510       .  S
C79          C80   1.411       .  A
C79         C726   1.513       .  S
C80          C81   1.414       .  A
C80          H85   1.081       .  S
C81          C82   1.443       .  A
C81         C638   1.517       .  S
C82          C83   1.413       .  A
C82         C642   1.520       .  S
C83          H84   1.080       .  S
C86          C87   1.449       .  A
C86          C91   1.407       .  A
C86         C758   1.515       .  S
C87          C88   1.409       .  A
C87         C713   1.523       .  S
C88          C89   1.404       .  A
C88          H93   1.077       .  S
C89          C90   1.436       .  A
C89         C629   1.510       .  S
C90          C91   1.403       .  A
C90         C634   1.508       .  S
C91          H92   1.079       .  S
C94          C95   1.429       .  A
C94          C99   1.396       .  A
C94         C754   1.488       .  S
C95          C96   1.399       .  A
C95         C738   1.494       .  S
C96          C97   1.399       .  A
C96         H101   1.084       .  S
C97          C98   1.436       .  A
C97         C626   1.493       .  S
C98          C99   1.402       .  A
C98         C621   1.502       .  S
C99         H100   1.081       .  S
C102        C103   1.452   1_556  A
C102        C107   1.414       .  A
C102        C618   1.529       .  S
C103        C104   1.411       .  A
C103        C613   1.528       .  S
C104        C105   1.412       .  A
C104        H109   1.075       .  S
C105        C106   1.449   1_554  A
C105        C605   1.527       .  S
C106        C107   1.411       .  A
C106        C609   1.525       .  S
C107        H108   1.076       .  S
C110        C111   1.443   1_556  A
C110        C115   1.405       .  A
C110        C601   1.521       .  S
C111        C112   1.414       .  A
C111        C597   1.528       .  S
C112        C113   1.417       .  A
C112        H117   1.068       .  S
C113        C114   1.455   1_554  A
C113        C589   1.532       .  S
C114        C115   1.411       .  A
C114        C593   1.534       .  S
C115        H116   1.071       .  S
C118        C119   1.438   1_455  A
C118        C123   1.402       .  A
C118        C585   1.501       .  S
C119        C120   1.403       .  A
C119        C581   1.500       .  S
C120        C121   1.402       .  A
C120        H125   1.085       .  S
C121        C122   1.433   1_655  A
C121        C577   1.496       .  S
C122        C123   1.400       .  A
C122        C573   1.495       .  S
C123        H124   1.084       .  S
C126        C127   1.435       .  A
C126        C131   1.401       .  A
C126        C718   1.505       .  S
C127        C128   1.401       .  A
C127        C750   1.491       .  S
C128        C129   1.401       .  A
C128        H133   1.084       .  S
C129        C130   1.431       .  A
C129        C565   1.496       .  S
C130        C131   1.396       .  A
C130        C570   1.489       .  S
C131        H132   1.080       .  S
C134        C135   1.437       .  A
C134        C139   1.405       .  A
C134        C786   1.509       .  S
C135        C136   1.405       .  A
C135        C710   1.505       .  S
C136        C137   1.405       .  A
C136        H141   1.081       .  S
C137        C138   1.434       .  A
C137        C562   1.505       .  S
C138        C139   1.402       .  A
C138        C558   1.504       .  S
C139        H140   1.077       .  S
C142        C163   1.476       .  S
C142        C546   1.564       .  S
C142        C549   1.554       .  S
C142        C553   1.556       .  S
N143        N144   1.305       .  A
N143        N149   1.304       .  A
N143       Mn172   2.114       .  S
N144        C151   1.350       .  A
N145        N147   1.305       .  A
N145        N146   1.307       .  A
N145       Mn161   2.095   1_454  S
N146        C152   1.346       .  A
N147        N148   1.299       .  A
N147       Mn172   2.126   1_554  S
N148        C152   1.344       .  A
N149        N150   1.301       .  A
N149       Mn161   2.102   1_455  S
N150        C151   1.341       .  A
C151        C190   1.473       .  S
C152        C201   1.474       .  S
N153        N159   1.303       .  A
N153        N154   1.305       .  A
N153       Mn183   2.102   1_554  S
N154        C162   1.348       .  A
N155        N156   1.308       .  A
N155        N157   1.304       .  A
N155       Mn161   2.100       .  S
N156        C163   1.347       .  A
N157        N158   1.300       .  A
N157       Mn183   2.124       .  S
N158        C163   1.344       .  A
N159        N160   1.300       .  A
N159       Mn161   2.105   1_554  S
N160        C162   1.342       .  A
Mn161      Cl185   2.494   1_655  S
C162        C192   1.475       .  S
N164        N165   1.303       .  A
N164        N170   1.306       .  A
N164       Mn172   2.122   1_554  S
N165        C173   1.348       .  A
N166        N168   1.305       .  A
N166        N167   1.300       .  A
N166       Mn184   2.109       .  S
N167        C174   1.342       .  A
N168        N169   1.307       .  A
N168       Mn172   2.114       .  S
N169        C174   1.350       .  A
N170        N171   1.306       .  A
N170       Mn184   2.111   1_554  S
N171        C173   1.346       .  A
Mn172      Cl185   2.483       .  S
C173        C202   1.470       .  S
C174        C189   1.472       .  S
N175        N176   1.305       .  A
N175        N181   1.304       .  A
N175       Mn183   2.099       .  S
N176        C186   1.347       .  A
N177        N178   1.310       .  A
N177        N179   1.304       .  A
N177       Mn184   2.109   1_654  S
N178        C187   1.349       .  A
N179        N180   1.299       .  A
N179       Mn183   2.122   1_554  S
N180        C187   1.343       .  A
N181        N182   1.301       .  A
N181       Mn184   2.116   1_655  S
N182        C186   1.344       .  A
Mn183      Cl185   2.474   1_655  S
Mn184      Cl185   2.490       .  S
C186        C191   1.475       .  S
C187        C188   1.477       .  S
C188        C569   1.551       .  S
C188        C598   1.563       .  S
C188        C654   1.551       .  S
C189        C561   1.548       .  S
C189        C586   1.553       .  S
C189        C678   1.565       .  S
C190        C541   1.560       .  S
C190        C557   1.545       .  S
C190        C610   1.567       .  S
C191        C537   1.556       .  S
C191        C582   1.555       .  S
C191        C602   1.559       .  S
C192        C529   1.560       .  S
C192        C533   1.559       .  S
C192        C566   1.548       .  S
C193        C194   1.433       .  A
C193        C198   1.407       .  A
C193        C766   1.504       .  S
C194        C195   1.398       .  A
C194        C698   1.494       .  S
C195        C196   1.398       .  A
C195        H200   1.083       .  S
C196        C197   1.437       .  A
C196        C554   1.498       .  S
C197        C198   1.407       .  A
C197        C538   1.504       .  S
C198        H199   1.080       .  S
C201        C525   1.552       .  S
C201        C606   1.564       .  S
C201        C625   1.553       .  S
C202        C622   1.546       .  S
C202        C646   1.551       .  S
C202        C686   1.564       .  S
C203        C204   1.429   1_545  A
C203        C208   1.412       .  A
C203        C517   1.511       .  S
C204        C205   1.402       .  A
C204        C522   1.507       .  S
C205        C206   1.415       .  A
C205        H210   1.078       .  S
C206        C207   1.454   1_565  A
C206        C509   1.527       .  S
C207        C208   1.419       .  A
C207        C514   1.530       .  S
C208        H209   1.078       .  S
C211        C212   1.430       .  A
C211        C216   1.407       .  A
C211        C746   1.503       .  S
C212        C213   1.402       .  A
C212        C730   1.497       .  S
C213        C214   1.404       .  A
C213        H218   1.084       .  S
C214        C215   1.439       .  A
C214        C502   1.502       .  S
C215        C216   1.410       .  A
C215        C505   1.508       .  S
C216        H217   1.081       .  S
C219        C220   1.430       .  A
C219        C224   1.405       .  A
C219        C770   1.498       .  S
C220        C221   1.400       .  A
C220        C706   1.497       .  S
C221        C222   1.401       .  A
C221        H226   1.084       .  S
C222        C223   1.439       .  A
C222        C494   1.499       .  S
C223        C224   1.410       .  A
C223        C498   1.513       .  S
C224        H225   1.080       .  S
C227        C248   1.477       .  S
C227        C490   1.554       .  S
C227        C497   1.556       .  S
C227        C594   1.564       .  S
N228        N229   1.308       .  A
N228        N234   1.307       .  A
N228       Mn257   2.133       .  S
N229        C236   1.348       .  A
N230        N232   1.305       .  A
N230        N231   1.305       .  A
N230       Mn246   2.125   1_564  S
N231        C237   1.345       .  A
N232        N233   1.309       .  A
N232       Mn257   2.129   1_554  S
N233        C237   1.351       .  A
N234        N235   1.309       .  A
N234       Mn246   2.134   1_565  S
N235        C236   1.349       .  A
C236        C276   1.478       .  S
C237        C273   1.483       .  S
N238        N244   1.306       .  A
N238        N239   1.311       .  A
N238       Mn268   2.133   1_554  S
N239        C247   1.352       .  A
N240        N241   1.309       .  A
N240        N242   1.307       .  A
N240       Mn246   2.124       .  S
N241        C248   1.348       .  A
N242        N243   1.306       .  A
N242       Mn268   2.136       .  S
N243        C248   1.349       .  A
N244        N245   1.304       .  A
N244       Mn246   2.131   1_554  S
N245        C247   1.344       .  A
Mn246      Cl270   2.488       .  S
C247        C287   1.482       .  S
N249        N250   1.301       .  A
N249        N255   1.306       .  A
N249       Mn257   2.129   1_554  S
N250        C258   1.344       .  A
N251        N253   1.306       .  A
N251        N252   1.304       .  A
N251       Mn269   2.129   1_565  S
N252        C259   1.344       .  A
N253        N254   1.309       .  A
N253       Mn257   2.122       .  S
N254        C259   1.350       .  A
N255        N256   1.308       .  A
N255       Mn269   2.110   1_564  S
N256        C258   1.348       .  A
Mn257      Cl270   2.499   1_565  S
C258        C277   1.477       .  S
C259        C274   1.480       .  S
N260        N261   1.303       .  A
N260        N266   1.306       .  A
N260       Mn268   2.146       .  S
N261        C271   1.348       .  A
N262        N263   1.307       .  A
N262        N264   1.306       .  A
N262       Mn269   2.133   1_554  S
N263        C272   1.349       .  A
N264        N265   1.308       .  A
N264       Mn268   2.128   1_554  S
N265        C272   1.349       .  A
N266        N267   1.309       .  A
N266       Mn269   2.106       .  S
N267        C271   1.347       .  A
Mn268      Cl270   2.498       .  S
Mn269      Cl270   2.497       .  S
C271        C275   1.482       .  S
C272        C286   1.477       .  S
C273        C482   1.562       .  S
C273        C486   1.558       .  S
C273        C506   1.557       .  S
C274        C477   1.554       .  S
C274        C521   1.561       .  S
C274        C617   1.568       .  S
C275        C493   1.554       .  S
C275        C518   1.558       .  S
C275        C690   1.562       .  S
C276        C465   1.554       .  S
C276        C469   1.569       .  S
C276        C473   1.553       .  S
C277        C501   1.561       .  S
C277        C614   1.567       .  S
C277        C662   1.554       .  S
C278        C279   1.432       .  A
C278        C283   1.411       .  A
C278        C778   1.514       .  S
C279        C280   1.408       .  A
C279        C694   1.506       .  S
C280        C281   1.412       .  A
C280        H285   1.081       .  S
C281        C282   1.440       .  A
C281        C474   1.517       .  S
C282        C283   1.412       .  A
C282        C478   1.513       .  S
C283        H284   1.080       .  S
C286        C641   1.555       .  S
C286        C670   1.560       .  S
C286        C682   1.572       .  S
C287        C461   1.559       .  S
C287        C590   1.566       .  S
C287        C637   1.557       .  S
C288        C289   1.436   1_655  A
C288        C293   1.401       .  A
C288        C534   1.499       .  S
C289        C290   1.407       .  A
C289        C526   1.503       .  S
C290        C291   1.403       .  A
C290        H295   1.083       .  S
C291        C292   1.433   1_455  A
C291        C453   1.501       .  S
C292        C293   1.402       .  A
C292        C457   1.494       .  S
C293        H294   1.084       .  S
C296        C297   1.430   1_545  A
C296        C301   1.402       .  A
C296        C462   1.508       .  S
C297        C298   1.409       .  A
C297        C485   1.509       .  S
C298        C299   1.419       .  A
C298        H303   1.076       .  S
C299        C300   1.456   1_565  A
C299        C445   1.531       .  S
C300        C301   1.415       .  A
C300        C449   1.529       .  S
C301        H302   1.076       .  S
C304        C305   1.444       .  A
C304        C309   1.405       .  A
C304        C722   1.513       .  S
C305        C306   1.408       .  A
C305        C774   1.516       .  S
C306        C307   1.402       .  A
C306        H311   1.077       .  S
C307        C308   1.436       .  A
C307        C441   1.506       .  S
C308        C309   1.403       .  A
C308        C438   1.510       .  S
C309        H310   1.076       .  S
C312        C313   1.452       .  A
C312        C317   1.407       .  A
C312        C734   1.516       .  S
C313        C314   1.408       .  A
C313        C782   1.526       .  S
C314        C315   1.402       .  A
C314        H319   1.072       .  S
C315        C316   1.434       .  A
C315        C434   1.510       .  S
C316        C317   1.401       .  A
C316        C430   1.505       .  S
C317        H318   1.078       .  S
C320        C341   1.473       .  S
C320        C437   1.547       .  S
C320        C450   1.563       .  S
C320        C649   1.554       .  S
N321        N322   1.301       .  A
N321        N327   1.305       .  A
N321       Mn350   2.108       .  S
N322        C329   1.340       .  A
N323        N325   1.306       .  A
N323        N324   1.308       .  A
N323       Mn339   2.124   1_565  S
N324        C330   1.350       .  A
N325        N326   1.303       .  A
N325       Mn350   2.120   1_565  S
N326        C330   1.343       .  A
N327        N328   1.307       .  A
N327       Mn339   2.116       .  S
N328        C329   1.350       .  A
C329        C369   1.473       .  S
C330        C370   1.479       .  S
N331        N337   1.305       .  A
N331        N332   1.301       .  A
N331       Mn361   2.116   1_565  S
N332        C340   1.343       .  A
N333        N334   1.305       .  A
N333        N335   1.306       .  A
N333       Mn339   2.129       .  S
N334        C341   1.349       .  A
N335        N336   1.306       .  A
N335       Mn361   2.109       .  S
N336        C341   1.344       .  A
N337        N338   1.308       .  A
N337       Mn339   2.113   1_565  S
N338        C340   1.349       .  A
Mn339      Cl363   2.513       .  S
C340        C366   1.475       .  S
N342        N343   1.306       .  A
N342        N348   1.306       .  A
N342       Mn350   2.111   1_465  S
N343        C351   1.345       .  A
N344        N346   1.305       .  A
N344        N345   1.309       .  A
N344       Mn362   2.116       .  S
N345        C352   1.350       .  A
N346        N347   1.301       .  A
N346       Mn350   2.119   1_455  S
N347        C352   1.342       .  A
N348        N349   1.305       .  A
N348       Mn362   2.127   1_565  S
N349        C351   1.349       .  A
Mn350      Cl363   2.466       .  S
C351        C368   1.472       .  S
C352        C380   1.478       .  S
N353        N354   1.303       .  A
N353        N359   1.306       .  A
N353       Mn361   2.120   1_455  S
N354        C364   1.343       .  A
N355        N356   1.307       .  A
N355        N357   1.305       .  A
N355       Mn362   2.123   1_565  S
N356        C365   1.351       .  A
N357        N358   1.301       .  A
N357       Mn361   2.105   1_465  S
N358        C365   1.340       .  A
N359        N360   1.307       .  A
N359       Mn362   2.119       .  S
N360        C364   1.350       .  A
Mn361      Cl363   2.468       .  S
Mn362      Cl363   2.513   1_455  S
C364        C379   1.477       .  S
C365        C367   1.474       .  S
C366        C425   1.549       .  S
C366        C446   1.563       .  S
C366        C458   1.549       .  S
C367        C429   1.551       .  S
C367        C454   1.554       .  S
C367        C674   1.567       .  S
C368        C422   1.549       .  S
C368        C433   1.551       .  S
C368        C510   1.564       .  S
C369        C417   1.568       .  S
C369        C442   1.551       .  S
C369        C578   1.552       .  S
C370        C405   1.555       .  S
C370        C410   1.570       .  S
C370        C413   1.550       .  S
C371        C372   1.452       .  A
C371        C376   1.407       .  A
C371        C742   1.518       .  S
C372        C373   1.409       .  A
C372        C702   1.522       .  S
C373        C374   1.405       .  A
C373        H378   1.077       .  S
C374        C375   1.435       .  A
C374        C414   1.507       .  S
C375        C376   1.403       .  A
C375        C426   1.509       .  S
C376        H377   1.078       .  S
C379        C633   1.551       .  S
C379        C657   1.554       .  S
C379        C665   1.568       .  S
C380        C513   1.567       .  S
C380        C574   1.553       .  S
C380        C630   1.551       .  S
C381        C382   1.434   1_655  A
C381        C386   1.407       .  A
C381        C550   1.507       .  S
C382        C383   1.405       .  A
C382        C542   1.504       .  S
C383        C384   1.411       .  A
C383        H388   1.076       .  S
C384        C385   1.436   1_455  A
C384        C421   1.514       .  S
C385        C386   1.405       .  A
C385        C406   1.501       .  S
C386        H387   1.083       .  S
C389        C390   1.435   1_565  A
C389        C394   1.413       .  A
C389        C466   1.521       .  S
C390        C391   1.411       .  A
C390        C489   1.518       .  S
C391        C392   1.417       .  A
C391        H396   1.074       .  S
C392        C393   1.459   1_545  A
C392        C418   1.538       .  S
C393        C394   1.417       .  A
C393        C409   1.536       .  S
C394        H395   1.073       .  S
C397        C398   1.443   1_554  A
C397        C402   1.407       .  A
C397        C530   1.517       .  S
C398        C399   1.410       .  A
C398        C545   1.525       .  S
C399        C400   1.415       .  A
C399        H404   1.071       .  S
C400        C401   1.454   1_556  A
C400        C470   1.534       .  S
C401        C402   1.413       .  A
C401        C481   1.527       .  S
C402        H403   1.077       .  S
C405        C406   1.369       .  D
C405        H407   1.087       .  S
C406        H408   1.080       .  S
C409        C410   1.395       .  D
C409        H411   1.076       .  S
C410        H412   1.081       .  S
C413        C414   1.379       .  D
C413        H415   1.086       .  S
C414        H416   1.085       .  S
C417        C418   1.395       .  D
C417        H419   1.079       .  S
C418        H420   1.076       .  S
C421        C422   1.377       .  D
C421        H423   1.082       .  S
C422        H424   1.081       .  S
C425        C426   1.379       .  D
C425        H427   1.086       .  S
C426        H428   1.085       .  S
C429        C430   1.379       .  D
C429        H431   1.086       .  S
C430        H432   1.085       .  S
C433        C434   1.383       .  D
C433        H435   1.085       .  S
C434        H436   1.083       .  S
C437        C438   1.380       .  D
C437        H439   1.085       .  S
C438        H440   1.085       .  S
C441        C442   1.382       .  D
C441        H443   1.085       .  S
C442        H444   1.086       .  S
C445        C446   1.390       .  D
C445        H447   1.078       .  S
C446        H448   1.080       .  S
C449        C450   1.389       .  D
C449        H451   1.077       .  S
C450        H452   1.080       .  S
C453        C454   1.371       .  D
C453        H455   1.081       .  S
C454        H456   1.087       .  S
C457        C458   1.370       .  D
C457        H459   1.081       .  S
C458        H460   1.087       .  S
C461        C462   1.376       .  D
C461        H463   1.087       .  S
C462        H464   1.081       .  S
C465        C466   1.379       .  D
C465        H467   1.083       .  S
C466        H468   1.081       .  S
C469        C470   1.394       .  D
C469        H471   1.079       .  S
C470        H472   1.078       .  S
C473        C474   1.377       .  D
C473        H475   1.085       .  S
C474        H476   1.084       .  S
C477        C478   1.377       .  D
C477        H479   1.086       .  S
C478        H480   1.085       .  S
C481        C482   1.392       .  D
C481        H483   1.079       .  S
C482        H484   1.082       .  S
C485        C486   1.373       .  D
C485        H487   1.081       .  S
C486        H488   1.087       .  S
C489        C490   1.373       .  D
C489        H491   1.084       .  S
C490        H492   1.086       .  S
C493        C494   1.374       .  D
C493        H495   1.087       .  S
C494        H496   1.079       .  S
C497        C498   1.381       .  D
C497        H499   1.082       .  S
C498        H500   1.081       .  S
C501        C502   1.376       .  D
C501        H503   1.087       .  S
C502        H504   1.078       .  S
C505        C506   1.377       .  D
C505        H507   1.085       .  S
C506        H508   1.086       .  S
C509        C510   1.389       .  D
C509        H511   1.079       .  S
C510        H512   1.081       .  S
C513        C514   1.389       .  D
C513        H515   1.082       .  S
C514        H516   1.079       .  S
C517        C518   1.373       .  D
C517        H519   1.085       .  S
C518        H520   1.086       .  S
C521        C522   1.374       .  D
C521        H523   1.087       .  S
C522        H524   1.079       .  S
C525        C526   1.375       .  D
C525        H527   1.086       .  S
C526        H528   1.085       .  S
C529        C530   1.388       .  D
C529        H531   1.085       .  S
C530        H532   1.082       .  S
C533        C534   1.375       .  D
C533        H535   1.087       .  S
C534        H536   1.078       .  S
C537        C538   1.377       .  D
C537        H539   1.086       .  S
C538        H540   1.085       .  S
C541        C542   1.375       .  D
C541        H543   1.087       .  S
C542        H544   1.078       .  S
C545        C546   1.392       .  D
C545        H547   1.081       .  S
C546        H548   1.083       .  S
C549        C550   1.374       .  D
C549        H551   1.086       .  S
C550        H552   1.085       .  S
C553        C554   1.375       .  D
C553        H555   1.087       .  S
C554        H556   1.079       .  S
C557        C558   1.377       .  D
C557        H559   1.085       .  S
C558        H560   1.085       .  S
C561        C562   1.375       .  D
C561        H563   1.086       .  S
C562        H564   1.085       .  S
C565        C566   1.373       .  D
C565        H567   1.085       .  S
C566        H568   1.086       .  S
C569        C570   1.371       .  D
C569        H571   1.088       .  S
C570        H572   1.080       .  S
C573        C574   1.372       .  D
C573        H575   1.081       .  S
C574        H576   1.087       .  S
C577        C578   1.370       .  D
C577        H579   1.081       .  S
C578        H580   1.088       .  S
C581        C582   1.375       .  D
C581        H583   1.080       .  S
C582        H584   1.087       .  S
C585        C586   1.374       .  D
C585        H587   1.080       .  S
C586        H588   1.087       .  S
C589        C590   1.393       .  D
C589        H591   1.077       .  S
C590        H592   1.081       .  S
C593        C594   1.395       .  D
C593        H595   1.077       .  S
C594        H596   1.078       .  S
C597        C598   1.392       .  D
C597        H599   1.081       .  S
C598        H600   1.081       .  S
C601        C602   1.389       .  D
C601        H603   1.082       .  S
C602        H604   1.085       .  S
C605        C606   1.394       .  D
C605        H607   1.082       .  S
C606        H608   1.082       .  S
C609        C610   1.392       .  D
C609        H611   1.082       .  S
C610        H612   1.085       .  S
C613        C614   1.395       .  D
C613        H615   1.082       .  S
C614        H616   1.084       .  S
C617        C618   1.395       .  D
C617        H619   1.082       .  S
C618        H620   1.081       .  S
C621        C622   1.379       .  D
C621        H623   1.083       .  S
C622        H624   1.084       .  S
C625        C626   1.372       .  D
C625        H627   1.088       .  S
C626        H628   1.079       .  S
C629        C630   1.380       .  D
C629        H631   1.085       .  S
C630        H632   1.086       .  S
C633        C634   1.379       .  D
C633        H635   1.086       .  S
C634        H636   1.085       .  S
C637        C638   1.377       .  D
C637        H639   1.086       .  S
C638        H640   1.084       .  S
C641        C642   1.380       .  D
C641        H643   1.084       .  S
C642        H644   1.083       .  S
C645        C646   1.376       .  D
C645        H647   1.083       .  S
C646        H648   1.084       .  S
C649        C650   1.377       .  D
C649        H651   1.082       .  S
C650        H652   1.081       .  S
C653        C654   1.374       .  D
C653        H655   1.085       .  S
C654        H656   1.087       .  S
C657        C658   1.370       .  D
C657        H659   1.087       .  S
C658        H660   1.080       .  S
C661        C662   1.375       .  D
C661        H663   1.085       .  S
C662        H664   1.086       .  S
C665        C666   1.394       .  D
C665        H667   1.082       .  S
C666        H668   1.078       .  S
C669        C670   1.381       .  D
C669        H671   1.081       .  S
C670        H672   1.083       .  S
C673        C674   1.395       .  D
C673        H675   1.077       .  S
C674        H676   1.079       .  S
C677        C678   1.394       .  D
C677        H679   1.075       .  S
C678        H680   1.079       .  S
C681        C682   1.396       .  D
C681        H683   1.079       .  S
C682        H684   1.082       .  S
C685        C686   1.391       .  D
C685        H687   1.076       .  S
C686        H688   1.081       .  S
C689        C690   1.392       .  D
C689        H691   1.080       .  S
C690        H692   1.084       .  S
C693        C694   1.372       .  D
C693        H695   1.086       .  S
C694        H696   1.085       .  S
C697        C698   1.371       .  D
C697        H699   1.087       .  S
C698        H700   1.079       .  S
C701        C702   1.394       .  D
C701        H703   1.083       .  S
C702        H704   1.080       .  S
C705        C706   1.370       .  D
C705        H707   1.087       .  S
C706        H708   1.082       .  S
C709        C710   1.376       .  D
C709        H711   1.086       .  S
C710        H712   1.085       .  S
C713        C714   1.394       .  D
C713        H715   1.081       .  S
C714        H716   1.081       .  S
C717        C718   1.379       .  D
C717        H719   1.082       .  S
C718        H720   1.082       .  S
C721        C722   1.385       .  D
C721        H723   1.085       .  S
C722        H724   1.082       .  S
C725        C726   1.371       .  D
C725        H727   1.086       .  S
C726        H728   1.084       .  S
C729        C730   1.368       .  D
C729        H731   1.087       .  S
C730        H732   1.080       .  S
C733        C734   1.391       .  D
C733        H735   1.083       .  S
C734        H736   1.077       .  S
C737        C738   1.373       .  D
C737        H739   1.086       .  S
C738        H740   1.085       .  S
C741        C742   1.390       .  D
C741        H743   1.084       .  S
C742        H744   1.081       .  S
C745        C746   1.371       .  D
C745        H747   1.086       .  S
C746        H748   1.086       .  S
C749        C750   1.371       .  D
C749        H751   1.087       .  S
C750        H752   1.079       .  S
C753        C754   1.371       .  D
C753        H755   1.087       .  S
C754        H756   1.079       .  S
C757        C758   1.389       .  D
C757        H759   1.085       .  S
C758        H760   1.082       .  S
C761        C762   1.372       .  D
C761        H763   1.086       .  S
C762        H764   1.085       .  S
C765        C766   1.376       .  D
C765        H767   1.085       .  S
C766        H768   1.084       .  S
C769        C770   1.370       .  D
C769        H771   1.088       .  S
C770        H772   1.082       .  S
C773        C774   1.389       .  D
C773        H775   1.082       .  S
C774        H776   1.081       .  S
C777        C778   1.370       .  D
C777        H779   1.086       .  S
C778        H780   1.084       .  S
C781        C782   1.395       .  D
C781        H783   1.079       .  S
C782        H784   1.077       .  S
C785        C786   1.380       .  D
C785        H787   1.083       .  S
C786        H788   1.083       .  S
