geometry optimzed in LAMMPS
_audit_creation_date              2020-11-30 
_audit_creation_method            'lammps2cif' 
_symmetry_space_group_name_H-M    'P1' 
_symmetry_Int_Tables_number       1 
_symmetry_cell_setting            triclinic 
loop_ 
_symmetry_equiv_pos_as_xyz 
  x,y,z 
_cell_length_a                    29.2073635092286 
_cell_length_b                    29.204479732004557 
_cell_length_c                    29.217740429068765 
_cell_angle_alpha                 89.97396776185948 
_cell_angle_beta                  90.00483498839925 
_cell_angle_gamma                 90.02183266386048 
loop_ 
_atom_site_label 
_atom_site_type_symbol 
_atom_site_fract_x 
_atom_site_fract_y 
_atom_site_fract_z 
_atom_site_charge 
O1          O  0.99957308  0.12585922  0.07033640    -0.83960
O2          O  0.00069554  0.87349448  0.07026295    -0.84120
O3          O  0.92992801  0.00079716  0.12593473    -0.85790
O4          O  0.07092494  0.99914347  0.12586672    -0.84550
O5          O  0.12643952  0.99915061  0.07013799    -0.84140
O6          O  0.87417772  0.00086219  0.07042537    -0.85510
O7          O  0.00115345  0.92906165  0.12590879    -0.83990
O8          O  0.99950626  0.07010017  0.12588071    -0.83570
Zr9        Zr  0.00031115  0.99960402  0.08855233     2.84310
O10         O  0.04695220  0.95298274  0.04650696    -1.05550
O11         O  0.95378381  0.04651170  0.04653109    -1.06280
C12         C  0.99948934  0.11109101  0.11126123     1.09150
C13         C  0.00118636  0.88810812  0.11121904     1.09090
C14         C  0.88896187  0.00123854  0.11132704     1.12080
C15         C  0.11187459  0.99920082  0.11112214     1.09860
H16         H  0.93431102  0.93408618  0.06551395     0.35410
O17         O  0.95344587  0.95319372  0.04650485    -1.26500
H18         H  0.06586631  0.06530987  0.06540887     0.35090
O19         O  0.04676893  0.04626409  0.04632750    -1.28180
O20         O  0.99886278  0.87381010  0.92942421    -0.83950
O21         O  0.00137054  0.12610636  0.92932930    -0.85450
O22         O  0.87395836  0.92955325  0.99852692    -0.84030
O23         O  0.12603339  0.92932842  0.00074023    -0.84080
O24         O  0.12653471  0.07014245  0.99929008    -0.83790
O25         O  0.87426154  0.07056883  0.00086183    -0.83600
O26         O  0.92966323  0.99882224  0.87387629    -0.83970
O27         O  0.07053220  0.00079347  0.87375409    -0.83430
O28         O  0.87403475  0.99892176  0.92949139    -0.84490
O29         O  0.12623706  0.00080419  0.92929535    -0.83650
O30         O  0.92947874  0.87382268  0.99845396    -0.84050
O31         O  0.93004326  0.12609244  0.00092255    -0.83770
O32         O  0.07107500  0.12593150  0.99937950    -0.83420
O33         O  0.07032796  0.87372925  0.00065132    -0.83830
O34         O  0.99889476  0.92951209  0.87384124    -0.84130
O35         O  0.00096318  0.07042628  0.87378734    -0.85460
Zr36       Zr  0.00001419  0.91112483  0.99991837     2.83100
Zr37       Zr  0.00039856  0.08865243  0.99978635     2.83500
Zr38       Zr  0.91146347  0.00001702  0.99995801     2.84090
Zr39       Zr  0.08888072  0.99978168  0.99975326     2.83360
Zr40       Zr  0.00016347  0.99999372  0.91120900     2.84220
O41         O  0.04701897  0.04663825  0.95308796    -1.06040
O42         O  0.95350734  0.95339919  0.95334000    -1.05540
C43         C  0.99823744  0.88853748  0.88849112     1.09120
C44         C  0.00146234  0.11139189  0.88840076     1.11740
C45         C  0.88855390  0.88857040  0.99775201     1.09300
C46         C  0.11126496  0.88841439  0.00093194     1.09660
C47         C  0.11201405  0.11115342  0.99937973     1.09240
C48         C  0.88906916  0.11148677  0.00127313     1.08790
C49         C  0.88870749  0.99829082  0.88854642     1.09220
C50         C  0.11149684  0.00108918  0.88837411     1.08730
H51         H  0.93452145  0.06567606  0.93421411     0.35410
O52         O  0.95360519  0.04660570  0.95329930    -1.27130
H53         H  0.06564915  0.93413672  0.93411852     0.35430
O54         O  0.04664259  0.95322097  0.95324595    -1.28520
C55         C  0.00382012  0.22139245  0.28291068     0.05660
C56         C  0.00587555  0.18968745  0.24835479    -0.10490
C57         C  0.00662373  0.20351719  0.20389790     0.03160
C58         C  0.00594699  0.24797394  0.18999350    -0.09020
C59         C  0.00385451  0.28260669  0.22161320     0.05650
C60         C  0.00266214  0.26989226  0.27011305    -0.08440
H61         H  0.00605621  0.15308565  0.25578306     0.11250
H62         H  0.00618105  0.25534095  0.15339549     0.08780
H63         H  0.00072269  0.29604745  0.29620798     0.08620
O64         O  0.00106470  0.13318401  0.42670304    -0.72760
O65         O  0.00088529  0.08017882  0.36871350    -0.51670
C66         C  0.00118956  0.12257546  0.38411078     0.80970
O67         O  0.13388333  0.00042667  0.57250938    -0.57360
O68         O  0.08089172  0.99997817  0.63052865    -0.50390
C69         C  0.12332299  0.00034990  0.61514624     0.72980
O70         O  0.13353715  0.00013475  0.42653780    -0.71920
O71         O  0.08047950  0.00077255  0.36857742    -0.52480
C72         C  0.12290118  0.00080337  0.38393483     0.78990
O73         O  0.00072582  0.13348644  0.57240072    -0.57060
O74         O  0.99998533  0.08046911  0.63042650    -0.50180
C75         C  0.00032127  0.12290171  0.61502317     0.75580
Zr76       Zr  0.00045326  0.09352836  0.49965079     2.54710
O77         O  0.06621584  0.14463607  0.49888781    -0.77630
O78         O  0.93600459  0.14627398  0.50160459    -0.91050
Zr79       Zr  0.09400663  0.99938034  0.49958929     2.64680
O80         O  0.14736398  0.06326276  0.49597551    -0.96000
O81         O  0.14479660  0.93338685  0.50198596    -0.78060
O82         O  0.04694750  0.04625483  0.45291746    -0.81420
O83         O  0.04741942  0.04666042  0.54648514    -2.16130
O84         O  0.86671935  0.99939394  0.57259387    -0.64810
O85         O  0.91976857  0.99945789  0.63057120    -0.49370
C86         C  0.87734414  0.99922427  0.61520471     0.73960
O87         O  0.99902332  0.86611069  0.42691713    -0.57720
O88         O  0.99972121  0.91910209  0.36885672    -0.49690
C89         C  0.99928476  0.87668605  0.38428951     0.75760
O90         O  0.99956207  0.86622960  0.57271174    -0.69110
O91         O  0.99999737  0.91930152  0.63064982    -0.47790
C92         C  0.99965748  0.87685718  0.61532911     0.77150
O93         O  0.86657965  0.99981520  0.42686711    -0.64440
O94         O  0.91953094  0.99939094  0.36881565    -0.51640
C95         C  0.87714251  0.99947462  0.38426061     0.75530
Zr96       Zr  0.90643946  0.00009891  0.49962373     2.77540
O97         O  0.85334149  0.93592615  0.49719379    -0.95190
O98         O  0.85570656  0.06612939  0.49972190    -0.76010
Zr99       Zr  0.00010727  0.90600208  0.49972006     2.70070
O100        O  0.93617352  0.85263901  0.50053627    -0.77260
O101        O  0.06661410  0.85593815  0.49853926    -0.96340
Zr102      Zr  0.00007036  0.99970204  0.40390252     2.21500
Zr103      Zr  0.00028264  0.99983781  0.59538674     2.11130
O104        O  0.95324968  0.95303281  0.54642806    -2.45030
O105        O  0.95322713  0.95300307  0.45291083    -0.77050
O106        O  0.95345267  0.04679244  0.54658911    -0.69250
O107        O  0.04707555  0.95258637  0.45256376    -2.30200
O108        O  0.95326363  0.04695549  0.45261306    -2.26410
O109        O  0.04704058  0.95273083  0.54670454    -0.71010
H110        H  0.06681979  0.06608922  0.56488891     0.80990
H111        H  0.06629940  0.93314175  0.43401100     0.82080
H112        H  0.93387605  0.93361278  0.56487869     0.84300
H113        H  0.93390449  0.06632434  0.43410013     0.81910
H114        H  0.14102564  0.91821085  0.47193458     0.44940
H115        H  0.08245127  0.86189834  0.52790457     0.43910
H116        H  0.91559003  0.86362102  0.47594756     0.43590
H117        H  0.85973585  0.91807165  0.52528128     0.41530
H118        H  0.86492338  0.08397899  0.52701619     0.44660
H119        H  0.91885969  0.14039342  0.47297687     0.39440
H120        H  0.08468524  0.13446222  0.47235706     0.45560
H121        H  0.14127375  0.08141542  0.52391902     0.41970
H122        H  0.82289032  0.94978071  0.50259541     0.46890
H123        H  0.94987437  0.17688260  0.49711999     0.45620
H124        H  0.17779348  0.04931641  0.50128106     0.45750
H125        H  0.05384950  0.82471191  0.50187555     0.46110
C126        C  0.77839099  0.99955459  0.28305641     0.05660
C127        C  0.81021394  0.00030408  0.24855865    -0.10490
C128        C  0.79650424  0.00084770  0.20408684     0.03160
C129        C  0.75211535  0.00055182  0.19005152    -0.09020
C130        C  0.71737149  0.99970303  0.22159278     0.05650
C131        C  0.72990851  0.99922430  0.27015093    -0.08440
H132        H  0.84679436  0.00050891  0.25606507     0.11250
H133        H  0.74487289  0.00094159  0.15342867     0.08780
H134        H  0.70364000  0.99859956  0.29620417     0.08620
C135        C  0.00050537  0.71625937  0.22194459     0.05660
C136        C  0.00063655  0.75087300  0.19020358    -0.10490
C137        C  0.00030244  0.79536210  0.20397325     0.03160
C138        C  0.99985118  0.80928993  0.24839864    -0.09020
C139        C  0.99980569  0.77765313  0.28310708     0.05650
C140        C  0.00012357  0.72908050  0.27045145    -0.08440
H141        H  0.00100233  0.74344118  0.15362725     0.11250
H142        H  0.99963779  0.84590755  0.25570586     0.08780
H143        H  0.00006467  0.70294346  0.29666088     0.08620
C144        C  0.28367576  0.00452940  0.22185600     0.05660
C145        C  0.24919976  0.00611460  0.18999824    -0.10490
C146        C  0.20464182  0.00644580  0.20360493     0.03160
C147        C  0.19054882  0.00571594  0.24799608    -0.09020
C148        C  0.22203302  0.00409914  0.28279562     0.05650
C149        C  0.27063659  0.00340509  0.27029664    -0.08440
H150        H  0.25678740  0.00632300  0.15345372     0.11250
H151        H  0.15390826  0.00563547  0.25518831     0.08780
H152        H  0.29664342  0.00186382  0.29657793     0.08620
C153        C  0.99713815  0.77797789  0.71686826     0.05660
C154        C  0.99477045  0.80965681  0.75142642    -0.10630
C155        C  0.99382151  0.79583421  0.79589517     0.03160
C156        C  0.99485286  0.75138749  0.80985873    -0.09020
C157        C  0.99722810  0.71671025  0.77830400     0.05650
C158        C  0.99845406  0.72944765  0.72975305    -0.08440
H159        H  0.99425079  0.84625193  0.74398521     0.11250
H160        H  0.99439629  0.74406040  0.84646093     0.08780
H161        H  0.00053563  0.70328253  0.70368025     0.08620
C162        C  0.22221907  0.00079629  0.71668063     0.05660
C163        C  0.19041452  0.00033504  0.75119748    -0.10490
C164        C  0.20410795  0.00009191  0.79569206     0.03160
C165        C  0.24850161  0.00023472  0.80978418    -0.09020
C166        C  0.28332349  0.00082327  0.77831859     0.05650
C167        C  0.27075249  0.00110881  0.72968736    -0.08440
H168        H  0.15383312  0.00027134  0.74369057     0.11250
H169        H  0.25568564  0.00010091  0.84641778     0.08780
H170        H  0.29703771  0.00156866  0.70364875     0.08620
C171        C  0.00025244  0.22180839  0.71636930     0.05660
C172        C  0.00039286  0.19005170  0.75096435    -0.10490
C173        C  0.00027870  0.20383229  0.79542876     0.03160
C174        C  0.99999490  0.24826423  0.80937568    -0.09020
C175        C  0.99997574  0.28300810  0.77779262     0.05650
C176        C  0.00009449  0.27035389  0.72921873    -0.08440
H177        H  0.00064293  0.15345651  0.74354211     0.11250
H178        H  0.99995150  0.25554570  0.84598630     0.08780
H179        H  0.00006840  0.29658695  0.70310589     0.08620
C180        C  0.77847508  0.99660038  0.71656877     0.05660
C181        C  0.81011217  0.99500432  0.75123354    -0.10490
C182        C  0.79619387  0.99425204  0.79567144     0.03160
C183        C  0.75170554  0.99477565  0.80947608    -0.09020
C184        C  0.71709698  0.99637068  0.77778066     0.05650
C185        C  0.72992189  0.99734626  0.72927855    -0.08440
H186        H  0.84672144  0.99482701  0.74389225     0.11250
H187        H  0.74427599  0.99442707  0.84605515     0.08780
H188        H  0.70379830  0.99878702  0.70310820     0.08620
O189        O  0.57479482  0.13238104  0.00006030    -0.72760
O190        O  0.63277640  0.07935595  0.99958398    -0.51670
C191        C  0.61738757  0.12175466  0.99976328     0.80970
O192        O  0.42808905  0.00175686  0.13389499    -0.57360
O193        O  0.36989860  0.00142562  0.08108653    -0.50390
C194        C  0.38540450  0.00193478  0.12343151     0.72980
O195        O  0.57394534  0.99916963  0.13317103    -0.71920
O196        O  0.63183605  0.99953033  0.08002209    -0.52480
C197        C  0.61650821  0.99936366  0.12244775     0.78990
O198        O  0.42843289  0.13402923  0.00194320    -0.57060
O199        O  0.37014298  0.08127067  0.00125539    -0.50180
C200        C  0.38572520  0.12360769  0.00186368     0.75580
Zr201      Zr  0.50120141  0.09382652  0.00047526     2.54710
O202        O  0.50302636  0.14499375  0.06611834    -0.77630
O203        O  0.49858736  0.14706426  0.93646255    -0.91050
Zr204      Zr  0.50094900  0.99967370  0.09384653     2.64680
O205        O  0.50561034  0.06357545  0.14705087    -0.96000
O206        O  0.49777999  0.93386998  0.14484524    -0.78060
O207        O  0.54794159  0.04626476  0.04673227    -0.81420
O208        O  0.45420608  0.04719007  0.04746375    -2.16130
O209        O  0.42718478  0.00108766  0.86696067    -0.64810
O210        O  0.36932885  0.00123503  0.92013207    -0.49370
C211        C  0.38457924  0.00125969  0.87766103     0.73960
O212        O  0.57292461  0.86612264  0.99791589    -0.57720
O213        O  0.63128302  0.91878605  0.99843993    -0.49690
C214        C  0.61564423  0.87646730  0.99785108     0.75760
O215        O  0.42707578  0.86683248  0.00069899    -0.69110
O216        O  0.36932131  0.92013408  0.00117892    -0.47790
C217        C  0.38449189  0.87761673  0.00109182     0.77150
O218        O  0.57308090  0.99927626  0.86623687    -0.64440
O219        O  0.63133004  0.99855337  0.91897108    -0.51640
C220        C  0.61576522  0.99860310  0.87664292     0.75530
Zr221      Zr  0.50035360  0.00054875  0.90639780     2.77540
O222        O  0.50150996  0.93643046  0.85328808    -0.95190
O223        O  0.50081915  0.06682465  0.85595157    -0.76010
Zr224      Zr  0.50018918  0.90634910  0.00004826     2.70070
O225        O  0.49815525  0.85295029  0.93626883    -0.77260
O226        O  0.50202168  0.85649223  0.06670093    -0.96340
Zr227      Zr  0.59651599  0.99941666  0.99958247     2.21500
Zr228      Zr  0.40486987  0.00062636  0.00055582     2.11130
O229        O  0.45344139  0.95363769  0.95335806    -2.45030
O230        O  0.54699632  0.95313101  0.95296414    -0.77050
O231        O  0.45382304  0.04738789  0.95365428    -0.69250
O232        O  0.54770024  0.95265385  0.04682121    -2.30200
O233        O  0.54781179  0.04705718  0.95305447    -2.26410
O234        O  0.45350535  0.95324018  0.04709690    -0.71010
H235        H  0.43601460  0.06671011  0.06695129     0.80990
H236        H  0.56619800  0.93304945  0.06595714     0.82080
H237        H  0.43476595  0.93434018  0.93409143     0.84300
H238        H  0.56633521  0.06632463  0.93359117     0.81910
H239        H  0.52754953  0.91817537  0.14088933     0.44940
H240        H  0.47287934  0.86264002  0.08287949     0.43910
H241        H  0.52243291  0.86386716  0.91527943     0.43590
H242        H  0.47321593  0.91895701  0.85986676     0.41530
H243        H  0.47366213  0.08485887  0.86522811     0.44660
H244        H  0.52694602  0.14112463  0.91889444     0.39440
H245        H  0.52974651  0.13472025  0.08427634     0.45560
H246        H  0.47780479  0.08201718  0.14112812     0.41970
H247        H  0.49607671  0.95040632  0.82289718     0.46890
H248        H  0.50347239  0.17752929  0.95048363     0.45620
H249        H  0.50037492  0.04971374  0.17753178     0.45750
H250        H  0.49836885  0.82524760  0.05410269     0.46110
O251        O  0.13384938  0.42655216  0.00128521    -0.72760
O252        O  0.08083258  0.36850710  0.00103312    -0.51670
C253        C  0.12323479  0.38392542  0.00144440     0.80970
O254        O  0.00092510  0.57228909  0.13370398    -0.57360
O255        O  0.00039839  0.63038477  0.08075298    -0.50390
C256        C  0.00070320  0.61493303  0.12314178     0.72980
O257        O  0.00055371  0.42639045  0.13337375    -0.71920
O258        O  0.00111554  0.36841102  0.08035286    -0.52480
C259        C  0.00107463  0.38378809  0.12274107     0.78990
O260        O  0.13410894  0.57247518  0.00101916    -0.57060
O261        O  0.08104012  0.63044112  0.00023634    -0.50180
C262        C  0.12345339  0.61510322  0.00069316     0.75580
Zr263      Zr  0.09425385  0.49957094  0.00050078     2.54710
O264        O  0.14515174  0.49876644  0.06638629    -0.77630
O265        O  0.14716563  0.50152175  0.93621793    -0.91050
Zr266      Zr  0.00008451  0.49942421  0.09387769     2.64680
O267        O  0.06392251  0.49580087  0.14723792    -0.96000
O268        O  0.93416599  0.50183455  0.14474467    -0.78060
O269        O  0.04693876  0.45272715  0.04689477    -0.81420
O270        O  0.04736119  0.54642628  0.04736137    -2.16130
O271        O  0.00023041  0.57264420  0.86673475    -0.64810
O272        O  0.00032315  0.63064121  0.91973963    -0.49370
C273        C  0.00010491  0.61528612  0.87732818     0.73960
O274        O  0.86687345  0.42698979  0.99895584    -0.57720
O275        O  0.91973800  0.36883077  0.99950152    -0.49690
C276        C  0.87737441  0.38435594  0.99908456     0.75760
O277        O  0.86705046  0.57263949  0.99946067    -0.69110
O278        O  0.92009734  0.63064943  0.99976428    -0.47790
C279        C  0.87766679  0.61527866  0.99942684     0.77150
O280        O  0.00054677  0.42673621  0.86652909    -0.64440
O281        O  0.00010502  0.36860439  0.91942814    -0.51640
C282        C  0.00020341  0.38407631  0.87703987     0.75530
Zr283      Zr  0.00090076  0.49955889  0.90642901     2.77540
O284        O  0.93662714  0.49714897  0.85351702    -0.95190
O285        O  0.06701555  0.49968100  0.85583724    -0.76010
Zr286      Zr  0.90682785  0.49969116  0.00011339     2.70070
O287        O  0.85327753  0.50053840  0.93640276    -0.77260
O288        O  0.85702847  0.49855094  0.06680733    -0.96340
Zr289      Zr  0.00039328  0.40373686  0.99997090     2.21500
Zr290      Zr  0.00055318  0.59532986  0.00020829     2.11130
O291        O  0.95383362  0.54636966  0.95318532    -2.45030
O292        O  0.95376226  0.45285496  0.95322994    -0.77050
O293        O  0.04756247  0.54653183  0.95347576    -0.69250
O294        O  0.95330848  0.45239186  0.04697896    -2.30200
O295        O  0.04770847  0.45253379  0.95326360    -2.26410
O296        O  0.95348200  0.54665969  0.04703577    -0.71010
H297        H  0.06675342  0.56484020  0.06678844     0.80990
H298        H  0.93382707  0.43383376  0.06619143     0.82080
H299        H  0.93442572  0.56482501  0.93381771     0.84300
H300        H  0.06708760  0.43402918  0.93392739     0.81910
H301        H  0.91894842  0.47177773  0.14100690     0.44940
H302        H  0.86296864  0.52800198  0.08250383     0.43910
H303        H  0.86424757  0.47602403  0.91574049     0.43590
H304        H  0.91878398  0.52522016  0.85998832     0.41530
H305        H  0.08489801  0.52694279  0.86514010     0.44660
H306        H  0.14127381  0.47289346  0.91907080     0.39440
H307        H  0.13497963  0.47214253  0.08476273     0.45560
H308        H  0.08200469  0.52384501  0.14126208     0.41970
H309        H  0.95041729  0.50262384  0.82305330     0.46890
H310        H  0.17771909  0.49698985  0.95016658     0.45620
H311        H  0.04993091  0.50093960  0.17766376     0.45750
H312        H  0.82575079  0.50174224  0.05416004     0.46110
C313        C  0.28397787  0.22195080  0.00424068     0.05660
C314        C  0.24951163  0.19003769  0.00555121    -0.10490
C315        C  0.20494631  0.20361853  0.00586828     0.03160
C316        C  0.19085096  0.24802642  0.00533354    -0.09020
C317        C  0.22234356  0.28285749  0.00401986     0.05650
C318        C  0.27093795  0.27039848  0.00338396    -0.08440
H319        H  0.25711922  0.15348428  0.00564924     0.11250
H320        H  0.15421062  0.25521436  0.00527609     0.08780
H321        H  0.29694062  0.29671826  0.00210844     0.08620
C322        C  0.28299750  0.77853161  0.00067204     0.05660
C323        C  0.24824243  0.81005271  0.99972742    -0.10490
C324        C  0.20384600  0.79597775  0.99944252     0.03160
C325        C  0.19007243  0.75148982  0.99989973    -0.09020
C326        C  0.22185965  0.71696807  0.00069955     0.05650
C327        C  0.27036964  0.72992282  0.00116480    -0.08440
H328        H  0.25548664  0.84669449  0.99947707     0.11250
H329        H  0.15348321  0.74398713  0.99977896     0.08780
H330        H  0.29660442  0.70384214  0.00190629     0.08620
C331        C  0.71756383  0.22165776  0.99954515     0.05660
C332        C  0.72999682  0.27028671  0.99911461    -0.10490
C333        C  0.77847485  0.28328614  0.99929930     0.03160
C334        C  0.81034804  0.24882717  0.99991468    -0.09020
C335        C  0.79670666  0.20432342  0.00039860     0.05650
C336        C  0.75236638  0.19019874  0.00018644    -0.08440
H337        H  0.70368257  0.29630436  0.99864209     0.11250
H338        H  0.84692211  0.25637931  0.00008078     0.08780
H339        H  0.74522236  0.15353320  0.00055594     0.08620
C340        C  0.77855832  0.71651949  0.99615890     0.05660
C341        C  0.81008312  0.75127265  0.99386991    -0.10490
C342        C  0.79604530  0.79568420  0.99266916     0.03160
C343        C  0.75153084  0.80938144  0.99338622    -0.09020
C344        C  0.71700976  0.77760596  0.99563119     0.05650
C345        C  0.72996978  0.72912132  0.99711236    -0.08440
H346        H  0.84671114  0.74403519  0.99361239     0.11250
H347        H  0.74401921  0.84595539  0.99277090     0.08780
H348        H  0.70392264  0.70289073  0.99910803     0.08620
C349        C  0.80301006  0.67189469  0.99801803    -0.10740
C350        C  0.83725584  0.64662814  0.99881697    -0.12300
C351        C  0.80255023  0.32807361  0.99894938    -0.10740
C352        C  0.83686203  0.35322355  0.99892054    -0.12300
C353        C  0.19778534  0.67211974  0.00103261    -0.10740
C354        C  0.16375207  0.64656774  0.00092274    -0.12300
C355        C  0.16363896  0.35264987  0.00207745    -0.10740
C356        C  0.19790400  0.32745393  0.00273383    -0.12300
C357        C  0.64847182  0.16228996  0.99952360    -0.10740
C358        C  0.67312264  0.19696725  0.99940053    -0.12300
C359        C  0.32766355  0.80301612  0.00122219    -0.10740
C360        C  0.35297808  0.83727135  0.00129617    -0.12300
C361        C  0.64682634  0.83591838  0.99731750    -0.10740
C362        C  0.67220638  0.80174960  0.99690963    -0.12300
C363        C  0.35444879  0.16405285  0.00253302    -0.10740
C364        C  0.32888472  0.19805712  0.00313006    -0.12300
C365        C  0.67233381  0.99748602  0.80197829    -0.10740
C366        C  0.64698148  0.99798296  0.83614781    -0.12300
C367        C  0.00002334  0.35284613  0.83653908    -0.10740
C368        C  0.99996555  0.32767809  0.80221883    -0.12300
C369        C  0.35315517  0.00133713  0.83725528    -0.10740
C370        C  0.32794850  0.00122795  0.80292504    -0.12300
C371        C  0.99891433  0.67201998  0.80270607    -0.10740
C372        C  0.99957593  0.64667611  0.83691684    -0.12300
C373        C  0.32856039  0.00333153  0.19788526    -0.10740
C374        C  0.35409013  0.00272136  0.16385089    -0.12300
C375        C  0.00069558  0.67148907  0.19777434    -0.10740
C376        C  0.00077007  0.64619769  0.16357166    -0.12300
C377        C  0.64775854  0.99932023  0.16281977    -0.10740
C378        C  0.67278967  0.99934168  0.19718607    -0.12300
C379        C  0.80276528  0.99795129  0.67187519    -0.10740
C380        C  0.83695253  0.99861392  0.64654686    -0.12300
C381        C  0.00029698  0.16335431  0.64631817    -0.10740
C382        C  0.00028634  0.19758419  0.67161147    -0.12300
C383        C  0.19800864  0.00092270  0.67185885    -0.10740
C384        C  0.16379375  0.00073171  0.64649352    -0.12300
C385        C  0.99926509  0.83645059  0.64673958    -0.10740
C386        C  0.99871192  0.80226304  0.67212749    -0.12300
C387        C  0.16329709  0.00163544  0.35260785    -0.10740
C388        C  0.19755335  0.00247851  0.32737875    -0.12300
C389        C  0.99930822  0.83623463  0.35302541    -0.10740
C390        C  0.99949230  0.80198024  0.32778666    -0.12300
C391        C  0.83670136  0.99925970  0.35304885    -0.10740
C392        C  0.80246544  0.99921709  0.32781825    -0.12300
C393        C  0.00224547  0.32727187  0.19735305    -0.10740
C394        C  0.00161137  0.35249718  0.16311676    -0.12300
C395        C  0.00164697  0.16297944  0.35284654    -0.10740
C396        C  0.00223979  0.19720659  0.32759961    -0.12300
C397        C  0.85623018  0.85634430  0.99554473    -0.10740
C398        C  0.82856311  0.82849401  0.99324628    -0.12300
C399        C  0.85695227  0.14386271  0.00160436    -0.10740
C400        C  0.82941389  0.17184398  0.00119233    -0.12300
C401        C  0.17117529  0.82845283  0.99974966    -0.10740
C402        C  0.14343238  0.85617852  0.00066122    -0.12300
C403        C  0.14448296  0.14330077  0.00102826    -0.10740
C404        C  0.17243777  0.17081667  0.00402178    -0.12300
C405        C  0.85644320  0.99666281  0.85625387    -0.10740
C406        C  0.82879003  0.99488002  0.82837508    -0.12300
C407        C  0.00089366  0.17116694  0.82803643    -0.10740
C408        C  0.00150644  0.14359758  0.85603479    -0.12300
C409        C  0.17135749  0.00043972  0.82817483    -0.10740
C410        C  0.14368434  0.00107995  0.85603734    -0.12300
C411        C  0.99426571  0.82854097  0.82847005    -0.10740
C412        C  0.99632926  0.85630312  0.85620581    -0.12300
C413        C  0.14428693  0.00104090  0.14328518    -0.10740
C414        C  0.17214864  0.00441005  0.17082925    -0.12300
C415        C  0.00120535  0.85576321  0.14347996    -0.10740
C416        C  0.00073106  0.82796664  0.17127418    -0.12300
C417        C  0.82920337  0.00155208  0.17158465    -0.10740
C418        C  0.85681820  0.00173059  0.14367374    -0.12300
C419        C  0.00115378  0.14328070  0.14357972    -0.10740
C420        C  0.00460533  0.17088828  0.17132366    -0.12300
loop_ 
_geom_bond_atom_site_label_1 
_geom_bond_atom_site_label_2 
_geom_bond_distance 
_geom_bond_site_symmetry_2 
_ccdc_geom_bond_type 
O1          Zr37   2.331   1_654  S
O1           C12   1.271       .  A
O2          Zr36   2.330   1_554  S
O2           C13   1.271       .  A
O3           Zr9   2.328   1_645  S
O3           C14   1.270       .  A
O4           Zr9   2.333       .  S
O4           C15   1.271       .  A
O5          Zr39   2.331   1_554  S
O5           C15   1.271       .  A
O6          Zr38   2.329   1_554  S
O6           C14   1.271       .  A
O7           Zr9   2.331       .  S
O7           C13   1.271       .  A
O8           Zr9   2.330   1_645  S
O8           C12   1.271       .  A
Zr9          O10   2.285       .  S
Zr9          O11   2.287   1_465  S
Zr9          O19   2.284   1_565  S
Zr9          O17   2.285   1_455  S
O10         Zr36   2.286   1_554  S
O10         Zr39   2.287   1_554  S
O11         Zr37   2.287   1_654  S
O11         Zr38   2.285   1_554  S
C12         C419   1.334   1_655  S
C13         C415   1.334       .  S
C14         C418   1.332       .  S
C15         C413   1.335   1_565  S
H16          O17   0.965       .  S
O17         Zr36   2.284   1_654  S
O17         Zr38   2.285   1_564  S
H18          O19   0.965       .  S
O19         Zr37   2.284   1_554  S
O19         Zr39   2.283   1_544  S
O20         Zr36   2.331   1_655  S
O20          C43   1.271       .  A
O21         Zr37   2.331       .  S
O21          C44   1.271       .  A
O22         Zr38   2.331   1_565  S
O22          C45   1.271       .  A
O23         Zr39   2.327   1_554  S
O23          C46   1.270       .  A
O24         Zr39   2.330   1_545  S
O24          C47   1.271       .  A
O25         Zr38   2.330   1_554  S
O25          C48   1.271       .  A
O26         Zr40   2.330   1_655  S
O26          C49   1.271       .  A
O27         Zr40   2.329   1_545  S
O27          C50   1.270       .  A
O28         Zr38   2.331   1_565  S
O28          C49   1.271       .  A
O29         Zr39   2.330   1_545  S
O29          C50   1.271       .  A
O30         Zr36   2.330   1_655  S
O30          C45   1.271       .  A
O31         Zr37   2.328   1_654  S
O31          C48   1.270       .  A
O32         Zr37   2.333       .  S
O32          C47   1.271       .  A
O33         Zr36   2.326   1_554  S
O33          C46   1.270       .  A
O34         Zr40   2.331   1_655  S
O34          C43   1.271       .  A
O35         Zr40   2.329   1_545  S
O35          C44   1.271       .  A
Zr36         O42   2.285   1_455  S
Zr36         O54   2.285       .  S
Zr37         O41   2.286       .  S
Zr37         O52   2.285   1_455  S
Zr38         O42   2.285   1_545  S
Zr38         O52   2.285       .  S
Zr39         O41   2.286   1_565  S
Zr39         O54   2.284       .  S
Zr40         O41   2.286   1_565  S
Zr40         O42   2.285   1_455  S
Zr40         O54   2.284       .  S
Zr40         O52   2.284   1_465  S
C43         C412   1.334       .  S
C44         C408   1.333       .  S
C45         C397   1.334       .  S
C46         C402   1.330       .  S
C47         C403   1.335   1_556  S
C48         C399   1.332       .  S
C49         C405   1.334       .  S
C50         C410   1.333       .  S
H51          O52   0.965       .  S
H53          O54   0.965       .  S
C55         C396   1.485       .  S
C55          C56   1.372       .  A
C55          C60   1.465       .  A
C56          C57   1.360       .  A
C56          H61   1.091       .  S
C57         C420   1.348       .  S
C57          C58   1.360       .  A
C58          C59   1.372       .  A
C58          H62   1.091       .  S
C59         C393   1.485       .  S
C59          C60   1.465       .  A
C60          H63   1.081       .  S
O64         Zr76   2.425       .  S
O64          C66   1.283       .  A
O65        Zr102   2.565   1_545  S
O65          C66   1.318       .  A
C66         C395   1.492       .  S
O67         Zr79   2.428   1_545  S
O67          C69   1.283       .  A
O68        Zr103   2.568       .  S
O68          C69   1.318   1_565  A
C69         C384   1.495       .  S
O70         Zr79   2.427   1_545  S
O70          C72   1.283       .  A
O71        Zr102   2.566   1_545  S
O71          C72   1.318       .  A
C72         C387   1.494       .  S
O73         Zr76   2.425       .  S
O73          C75   1.283       .  A
O74        Zr103   2.568   1_645  S
O74          C75   1.318   1_655  A
C75         C381   1.494       .  S
Zr76         O82   2.370       .  S
Zr76         O83   2.372       .  S
Zr76        O106   2.372   1_455  S
Zr76        O108   2.375   1_455  S
Zr76         O77   2.432       .  S
Zr76         O78   2.433   1_455  S
O77         H120   0.990       .  S
O78         H119   0.990       .  S
O78         H123   0.990       .  S
Zr79         O83   2.375   1_565  S
Zr79         O82   2.371   1_565  S
Zr79        O107   2.374       .  S
Zr79        O109   2.373       .  S
Zr79         O80   2.433   1_565  S
Zr79         O81   2.434       .  S
O80         H121   0.990       .  S
O80         H124   0.990       .  S
O81         H114   0.990       .  S
O82        Zr102   2.403   1_545  S
O83        Zr103   2.409   1_545  S
O83         H110   0.965       .  S
O84         Zr96   2.427   1_565  S
O84          C86   1.283       .  A
O85        Zr103   2.567   1_655  S
O85          C86   1.318       .  A
C86         C380   1.494       .  S
O87         Zr99   2.426   1_655  S
O87          C89   1.283       .  A
O88        Zr102   2.567   1_655  S
O88          C89   1.318       .  A
C89         C389   1.494       .  S
O90         Zr99   2.428   1_655  S
O90          C92   1.283       .  A
O91        Zr103   2.567   1_655  S
O91          C92   1.318       .  A
C92         C385   1.495       .  S
O93         Zr96   2.424   1_565  S
O93          C95   1.283       .  A
O94        Zr102   2.566   1_655  S
O94          C95   1.318       .  A
C95         C391   1.492       .  S
Zr96        O104   2.372   1_545  S
Zr96        O105   2.372   1_545  S
Zr96        O108   2.372       .  S
Zr96        O106   2.372       .  S
Zr96         O97   2.433   1_545  S
Zr96         O98   2.432       .  S
O97         H117   0.990       .  S
O97         H122   0.990       .  S
O98         H118   0.990       .  S
Zr99        O105   2.373   1_455  S
Zr99        O104   2.372   1_455  S
Zr99        O109   2.372       .  S
Zr99        O107   2.372       .  S
Zr99        O100   2.432   1_455  S
Zr99        O101   2.432       .  S
O100        H116   0.990       .  S
O101        H115   0.990       .  S
O101        H125   0.990       .  S
Zr102       O105   2.404   1_455  S
Zr102       O107   2.408       .  S
Zr102       O108   2.409   1_465  S
Zr103       O104   2.409   1_455  S
Zr103       O106   2.405   1_465  S
Zr103       O109   2.405       .  S
O104        H112   0.965       .  S
O107        H111   0.965       .  S
O108        H113   0.965       .  S
C126        C392   1.485       .  S
C126        C127   1.371   1_565  A
C126        C131   1.465       .  A
C127        C128   1.360       .  A
C127        H132   1.091       .  S
C128        C417   1.347       .  S
C128        C129   1.360       .  A
C129        C130   1.371   1_545  A
C129        H133   1.091       .  S
C130        C378   1.485       .  S
C130        C131   1.465       .  A
C131        H134   1.081       .  S
C135        C375   1.486       .  S
C135        C136   1.372       .  A
C135        C140   1.466       .  A
C136        C137   1.360       .  A
C136        H141   1.091       .  S
C137        C416   1.349       .  S
C137        C138   1.360   1_455  A
C138        C139   1.372       .  A
C138        H142   1.091       .  S
C139        C390   1.487       .  S
C139        C140   1.466   1_655  A
C140        H143   1.081       .  S
C144        C373   1.487       .  S
C144        C145   1.372       .  A
C144        C149   1.466       .  A
C145        C146   1.361       .  A
C145        H150   1.091       .  S
C146        C414   1.349       .  S
C146        C147   1.361       .  A
C147        C148   1.372       .  A
C147        H151   1.091       .  S
C148        C388   1.487       .  S
C148        C149   1.466       .  A
C149        H152   1.081       .  S
C153        C386   1.488       .  S
C153        C154   1.372       .  A
C153        C158   1.467       .  A
C154        C155   1.361       .  A
C154        H159   1.091       .  S
C155        C411   1.349       .  S
C155        C156   1.361       .  A
C156        C157   1.372       .  A
C156        H160   1.091       .  S
C157        C371   1.488       .  S
C157        C158   1.467       .  A
C158        H161   1.081   1_655  S
C162        C383   1.488       .  S
C162        C163   1.371       .  A
C162        C167   1.468       .  A
C163        C164   1.360       .  A
C163        H168   1.091       .  S
C164        C409   1.348       .  S
C164        C165   1.360       .  A
C165        C166   1.371       .  A
C165        H169   1.091       .  S
C166        C370   1.489       .  S
C166        C167   1.468       .  A
C167        H170   1.081       .  S
C171        C382   1.487       .  S
C171        C172   1.371       .  A
C171        C176   1.467       .  A
C172        C173   1.360       .  A
C172        H177   1.091       .  S
C173        C407   1.348       .  S
C173        C174   1.360   1_455  A
C174        C175   1.371       .  A
C174        H178   1.091       .  S
C175        C368   1.487       .  S
C175        C176   1.467   1_655  A
C176        H179   1.081       .  S
C180        C379   1.487       .  S
C180        C181   1.372       .  A
C180        C185   1.466       .  A
C181        C182   1.361       .  A
C181        H186   1.091       .  S
C182        C406   1.349       .  S
C182        C183   1.361       .  A
C183        C184   1.372       .  A
C183        H187   1.091       .  S
C184        C365   1.487       .  S
C184        C185   1.466       .  A
C185        H188   1.081       .  S
O189       Zr201   2.426       .  S
O189        C191   1.282   1_554  A
O190       Zr227   2.563   1_545  S
O190        C191   1.317       .  A
C191        C357   1.492       .  S
O192       Zr204   2.429   1_545  S
O192        C194   1.284       .  A
O193       Zr228   2.565       .  S
O193        C194   1.318       .  A
C194        C374   1.494       .  S
O195       Zr204   2.422       .  S
O195        C197   1.282       .  A
O196       Zr227   2.567   1_554  S
O196        C197   1.318       .  A
C197        C377   1.491       .  S
O198       Zr201   2.429       .  S
O198        C200   1.284       .  A
O199       Zr228   2.565       .  S
O199        C200   1.317       .  A
C200        C363   1.494       .  S
Zr201       O207   2.370       .  S
Zr201       O208   2.371       .  S
Zr201       O231   2.372   1_554  S
Zr201       O233   2.375   1_554  S
Zr201       O202   2.432       .  S
Zr201       O203   2.433   1_554  S
O202        H245   0.990       .  S
O203        H244   0.990       .  S
O203        H248   0.990       .  S
Zr204       O208   2.372   1_565  S
Zr204       O207   2.372   1_565  S
Zr204       O232   2.375       .  S
Zr204       O234   2.372       .  S
Zr204       O205   2.433   1_565  S
Zr204       O206   2.433       .  S
O205        H246   0.990       .  S
O205        H249   0.990       .  S
O206        H239   0.990       .  S
O207       Zr227   2.405   1_544  S
O208       Zr228   2.409       .  S
O208        H235   0.965       .  S
O209       Zr221   2.428       .  S
O209        C211   1.283       .  A
O210       Zr228   2.569   1_556  S
O210        C211   1.318       .  A
C211        C369   1.495       .  S
O212       Zr224   2.429   1_556  S
O212        C214   1.284       .  A
O213       Zr227   2.565       .  S
O213        C214   1.318       .  A
C214        C361   1.494       .  S
O215       Zr224   2.427       .  S
O215        C217   1.283       .  A
O216       Zr228   2.570   1_565  S
O216        C217   1.319       .  A
C217        C360   1.495       .  S
O218       Zr221   2.427   1_565  S
O218        C220   1.283       .  A
O219       Zr227   2.566       .  S
O219        C220   1.318       .  A
C220        C366   1.494       .  S
Zr221       O229   2.374   1_545  S
Zr221       O230   2.372   1_545  S
Zr221       O233   2.372       .  S
Zr221       O231   2.372       .  S
Zr221       O222   2.433   1_545  S
Zr221       O223   2.432       .  S
O222        H242   0.990       .  S
O222        H247   0.990       .  S
O223        H243   0.990       .  S
Zr224       O230   2.372   1_554  S
Zr224       O229   2.373   1_554  S
Zr224       O234   2.372       .  S
Zr224       O232   2.371       .  S
Zr224       O225   2.431   1_554  S
Zr224       O226   2.432       .  S
O225        H241   0.990       .  S
O226        H240   0.990       .  S
O226        H250   0.990       .  S
Zr227       O230   2.403       .  S
Zr227       O232   2.408   1_556  S
Zr227       O233   2.410   1_565  S
Zr228       O229   2.409   1_544  S
Zr228       O231   2.405   1_554  S
Zr228       O234   2.404   1_545  S
O229        H237   0.965       .  S
O232        H236   0.965       .  S
O233        H238   0.966       .  S
O251       Zr263   2.426       .  S
O251        C253   1.283       .  A
O252       Zr289   2.565   1_554  S
O252        C253   1.318       .  A
C253        C355   1.493       .  S
O254       Zr266   2.426       .  S
O254        C256   1.283       .  A
O255       Zr290   2.567       .  S
O255        C256   1.318       .  A
C256        C376   1.493       .  S
O257       Zr266   2.425       .  S
O257        C259   1.283       .  A
O258       Zr289   2.565   1_554  S
O258        C259   1.318       .  A
C259        C394   1.492       .  S
O260       Zr263   2.426       .  S
O260        C262   1.283       .  A
O261       Zr290   2.564       .  S
O261        C262   1.318       .  A
C262        C354   1.493       .  S
Zr263       O269   2.370       .  S
Zr263       O270   2.372       .  S
Zr263       O293   2.372   1_554  S
Zr263       O295   2.375   1_554  S
Zr263       O264   2.432       .  S
Zr263       O265   2.433   1_554  S
O264        H307   0.990       .  S
O265        H306   0.990       .  S
O265        H310   0.990       .  S
Zr266       O270   2.374       .  S
Zr266       O269   2.371       .  S
Zr266       O294   2.373   1_455  S
Zr266       O296   2.372   1_455  S
Zr266       O267   2.433       .  S
Zr266       O268   2.433   1_455  S
O267        H308   0.990       .  S
O267        H311   0.990       .  S
O268        H301   0.990       .  S
O269       Zr289   2.403   1_554  S
O270       Zr290   2.410       .  S
O270        H297   0.965       .  S
O271       Zr283   2.429       .  S
O271        C273   1.283       .  A
O272       Zr290   2.567   1_556  S
O272        C273   1.318       .  A
C273        C372   1.495   1_455  S
O274       Zr286   2.423   1_556  S
O274        C276   1.282       .  A
O275       Zr289   2.567   1_655  S
O275        C276   1.318       .  A
C276        C352   1.492       .  S
O277       Zr286   2.427   1_556  S
O277        C279   1.283       .  A
O278       Zr290   2.567   1_656  S
O278        C279   1.318       .  A
C279        C350   1.494       .  S
O280       Zr283   2.426       .  S
O280        C282   1.283       .  A
O281       Zr289   2.568       .  S
O281        C282   1.318       .  A
C282        C367   1.494       .  S
Zr283       O291   2.372   1_455  S
Zr283       O292   2.371   1_455  S
Zr283       O295   2.372       .  S
Zr283       O293   2.373       .  S
Zr283       O284   2.433   1_455  S
Zr283       O285   2.432       .  S
O284        H304   0.990       .  S
O284        H309   0.990       .  S
O285        H305   0.990       .  S
Zr286       O292   2.373   1_554  S
Zr286       O291   2.371   1_554  S
Zr286       O296   2.370       .  S
Zr286       O294   2.372       .  S
Zr286       O287   2.431   1_554  S
Zr286       O288   2.432       .  S
O287        H303   0.990       .  S
O288        H302   0.990       .  S
O288        H312   0.990       .  S
Zr289       O292   2.404   1_455  S
Zr289       O294   2.408   1_456  S
Zr289       O295   2.408       .  S
Zr290       O291   2.407   1_454  S
Zr290       O293   2.405   1_554  S
Zr290       O296   2.404   1_455  S
O291        H299   0.965       .  S
O294        H298   0.965       .  S
O295        H300   0.965       .  S
C313        C364   1.486       .  S
C313        C314   1.372       .  A
C313        C318   1.466       .  A
C314        C315   1.361       .  A
C314        H319   1.090       .  S
C315        C404   1.350       .  S
C315        C316   1.361       .  A
C316        C317   1.372       .  A
C316        H320   1.091       .  S
C317        C356   1.486       .  S
C317        C318   1.465       .  A
C318        H321   1.081       .  S
C322        C359   1.488       .  S
C322        C323   1.371   1_554  A
C322        C327   1.467       .  A
C323        C324   1.360       .  A
C323        H328   1.091       .  S
C324        C401   1.346       .  S
C324        C325   1.360       .  A
C325        C326   1.371   1_556  A
C325        H329   1.091       .  S
C326        C353   1.486       .  S
C326        C327   1.466       .  A
C327        H330   1.081       .  S
C331        C358   1.485       .  S
C331        C332   1.466       .  A
C331        C336   1.371   1_556  A
C332        C333   1.466       .  A
C332        H337   1.081       .  S
C333        C351   1.485       .  S
C333        C334   1.371       .  A
C334        C335   1.359   1_556  A
C334        H338   1.091   1_556  S
C335        C400   1.347       .  S
C335        C336   1.359       .  A
C336        H339   1.091       .  S
C340        C349   1.487       .  S
C340        C341   1.372       .  A
C340        C345   1.466       .  A
C341        C342   1.361       .  A
C341        H346   1.091       .  S
C342        C398   1.349       .  S
C342        C343   1.361       .  A
C343        C344   1.372       .  A
C343        H347   1.091       .  S
C344        C362   1.487       .  S
C344        C345   1.466       .  A
C345        H348   1.081       .  S
C349        C350   1.243       .  T
C351        C352   1.242       .  T
C353        C354   1.243       .  T
C355        C356   1.243       .  T
C357        C358   1.242       .  T
C359        C360   1.244       .  T
C361        C362   1.243       .  T
C363        C364   1.243       .  T
C365        C366   1.243       .  T
C367        C368   1.244   1_455  T
C369        C370   1.244       .  T
C371        C372   1.244       .  T
C373        C374   1.243       .  T
C375        C376   1.243       .  T
C377        C378   1.242       .  T
C379        C380   1.243       .  T
C381        C382   1.243       .  T
C383        C384   1.244       .  T
C385        C386   1.244       .  T
C387        C388   1.243       .  T
C389        C390   1.243       .  T
C391        C392   1.242       .  T
C393        C394   1.242       .  T
C395        C396   1.242       .  T
C397        C398   1.148       .  T
C399        C400   1.147       .  T
C401        C402   1.146   1_556  T
C403        C404   1.149       .  T
C405        C406   1.148       .  T
C407        C408   1.148       .  T
C409        C410   1.147       .  T
C411        C412   1.148       .  T
C413        C414   1.149       .  T
C415        C416   1.148       .  T
C417        C418   1.147       .  T
C419        C420   1.148       .  T
