geometry optimzed in LAMMPS
_audit_creation_date              2020-12-01 
_audit_creation_method            'lammps2cif' 
_symmetry_space_group_name_H-M    'P1' 
_symmetry_Int_Tables_number       1 
_symmetry_cell_setting            triclinic 
loop_ 
_symmetry_equiv_pos_as_xyz 
  x,y,z 
_cell_length_a                    39.60106425 
_cell_length_b                    37.879436939919785 
_cell_length_c                    24.854091230596147 
_cell_angle_alpha                 89.8341356229983 
_cell_angle_beta                  89.66233928514359 
_cell_angle_gamma                 121.8008854829032 
loop_ 
_atom_site_label 
_atom_site_type_symbol 
_atom_site_fract_x 
_atom_site_fract_y 
_atom_site_fract_z 
_atom_site_charge 
O1          O  0.10982589  0.17647767  0.17712652    -0.86000
O2          O  0.18396689  0.23978396  0.20395632    -0.83000
C3          C  0.19019093  0.27124592  0.17719491     0.97500
O4          O  0.17158849  0.28881936  0.18811131    -0.83100
O5          O  0.10921670  0.29546419  0.21706772    -0.85700
C6          C  0.08210394  0.27252893  0.18415684     1.02000
O7          O  0.06448448  0.23335585  0.18725954    -0.78500
O8          O  0.05092547  0.15432994  0.20979991    -0.78700
C9          C  0.07301899  0.15103648  0.17577114     1.01900
O10         O  0.09243258  0.14878935  0.28820561    -0.86000
O11         O  0.16416574  0.21620580  0.31618854    -0.83000
C12         C  0.18936361  0.25369790  0.32543799     0.97500
O13         O  0.18897912  0.28246816  0.29953950    -0.83100
O14         O  0.12283927  0.28528444  0.32944799    -0.85700
C15         C  0.08659401  0.27337056  0.33332115     1.02000
O16         O  0.06187309  0.24721806  0.30042534    -0.78500
O17         O  0.05974033  0.17531671  0.32209199    -0.78700
C18         C  0.06995223  0.14904354  0.32452903     1.01900
Cr19       Cr  0.13604941  0.19774176  0.24679165     1.93700
Cr20       Cr  0.14586276  0.28367991  0.25849157     1.93200
Cr21       Cr  0.06305864  0.20439013  0.25462512     1.39100
O22         O  0.11521970  0.22885054  0.25364515    -1.23700
C23         C  0.00234927  0.33411677  0.03792186    -0.03100
C24         C  0.00127621  0.33672038  0.46079179    -0.03100
O25         O  0.16627790  0.10251371  0.81943502    -0.86000
O26         O  0.23304250  0.17871180  0.78849249    -0.83000
C27         C  0.25693999  0.18174576  0.82408591     0.97500
O28         O  0.26956354  0.15750270  0.82129704    -0.83100
O29         O  0.27549091  0.09045706  0.79615834    -0.85700
C30         C  0.25048139  0.06025607  0.82515509     1.02000
O31         O  0.21378421  0.04324442  0.81730993    -0.78500
O32         O  0.14526127  0.03959172  0.79188545    -0.78700
C33         C  0.14385473  0.06363431  0.82603314     1.01900
O34         O  0.14443555  0.08433979  0.70807241    -0.86000
O35         O  0.21572436  0.15506321  0.67865000    -0.83000
C36         C  0.25268104  0.18058859  0.67376201     0.97500
O37         O  0.27662747  0.17951529  0.70667250    -0.83100
O38         O  0.27623302  0.10823271  0.68430691    -0.85700
C39         C  0.26231677  0.07004672  0.67729665     1.02000
O40         O  0.23273141  0.04301819  0.70473319    -0.78500
O41         O  0.16588059  0.04536057  0.67800788    -0.78700
C42         C  0.14240271  0.05826429  0.67451332     1.02100
Cr43       Cr  0.19178524  0.12805588  0.74881644     1.93700
Cr44       Cr  0.27046690  0.13177674  0.75197734     1.93200
Cr45       Cr  0.19148750  0.04710117  0.74778674     1.39100
O46         O  0.21803384  0.10211406  0.74902334    -1.23700
C47         C  0.32969377  0.99805667  0.96661123    -0.03100
C48         C  0.99946868  0.33210682  0.53211987    -0.03100
C49         C  0.25057105  0.23571756  0.87710510    -0.02500
C50         C  0.27061834  0.21441945  0.86754619     0.07200
C51         C  0.30305174  0.22414501  0.90117445    -0.02600
C52         C  0.31470698  0.25368255  0.94302339    -0.02600
C53         C  0.30163551  0.28317691  0.94520277     0.07300
C54         C  0.26484674  0.26834172  0.91548583    -0.02800
Br55       Br  0.22344784  0.27810584  0.93763448    -0.01300
Br56       Br  0.20236497  0.22091703  0.83763683    -0.01400
Br57       Br  0.99355505  0.23161460  0.00489900    -0.01400
Br58       Br  0.00159963  0.19940722  0.89000059    -0.01400
C59         C  0.04281301  0.99568934  0.88740820    -0.02500
C60         C  0.03892474  0.01744348  0.93302825     0.07200
C61         C  0.07526615  0.05839974  0.93944463    -0.02600
C62         C  0.11138615  0.07078634  0.91076847    -0.02600
C63         C  0.11249133  0.04610522  0.86983565     0.07300
C64         C  0.07969109  0.00589414  0.86580829    -0.02800
Br65       Br  0.08589199  0.29466497  0.84127913    -0.01300
Br66       Br  0.00539773  0.30439787  0.82971605    -0.01400
Br67       Br  0.16137237  0.12041080  0.93119477    -0.01400
Br68       Br  0.07851341  0.10766611  0.96442670    -0.01400
C69         C  0.26374957  0.04855903  0.92075436    -0.02500
C70         C  0.26532352  0.04307908  0.86551693     0.07200
C71         C  0.28646608  0.02570620  0.84796622    -0.02600
C72         C  0.31661527  0.02986386  0.88088539    -0.02600
C73         C  0.31088250  0.02366396  0.93851120     0.07300
C74         C  0.28069380  0.03269242  0.95726584    -0.02800
Br75       Br  0.25503106  0.35664798  0.02627182    -0.01300
Br76       Br  0.23609058  0.07551702  0.94468176    -0.01400
Br77       Br  0.03162944  0.07463385  0.84868689    -0.01400
Br78       Br  0.28306009  0.00900714  0.77441050    -0.01400
C79         C  0.25196067  0.23827455  0.62484602    -0.02500
C80         C  0.26813872  0.21357157  0.63115572     0.07200
C81         C  0.29939258  0.22081091  0.59728131    -0.02600
C82         C  0.31931129  0.25704094  0.56425540    -0.02600
C83         C  0.30396763  0.28442014  0.55544129     0.07300
C84         C  0.26574922  0.26890783  0.58356357    -0.02800
Br85       Br  0.22040831  0.27043139  0.55957902    -0.01300
Br86       Br  0.21198890  0.23223164  0.67641834    -0.01400
Br87       Br  0.03706418  0.26773891  0.54190545    -0.01400
Br88       Br  0.31523745  0.18021158  0.59761528    -0.01400
C89         C  0.07115101  0.01271435  0.65344768    -0.02500
C90         C  0.10936960  0.03996943  0.63513557     0.07200
C91         C  0.11491402  0.05039597  0.58076153    -0.02600
C92         C  0.08189424  0.03176495  0.54498251    -0.02600
C93         C  0.04083672  0.01279115  0.56476500     0.07300
C94         C  0.03811096  0.00464594  0.62293929    -0.02800
Br95       Br  0.99251608  0.98700834  0.66949772    -0.01300
Br96       Br  0.06457359  0.98384552  0.71979444    -0.01400
Br97       Br  0.10025190  0.02394619  0.47752613    -0.01400
Br98       Br  0.16897328  0.08827913  0.55565699    -0.01400
C99         C  0.28010981  0.02501783  0.55097396    -0.02500
C100        C  0.31826024  0.02894508  0.55941582     0.07200
C101        C  0.34085735  0.06062181  0.60038050    -0.02600
C102        C  0.32208164  0.07190637  0.63977120    -0.02600
C103        C  0.28157954  0.05700544  0.63703807     0.07300
C104        C  0.26100691  0.03481881  0.59174228    -0.02800
Br105      Br  0.20647305  0.02084364  0.58399894    -0.01300
Br106      Br  0.25491177  0.35286292  0.48289722    -0.01400
Br107      Br  0.01848945  0.10760679  0.69980360    -0.01400
Br108      Br  0.06449049  0.09751695  0.60284065    -0.01400
C109        C  0.07420973  0.32932368  0.35398065    -0.02500
C110        C  0.07238811  0.29319574  0.37121207     0.07200
C111        C  0.04466379  0.26927526  0.41163444    -0.02600
C112        C  0.01441347  0.27713581  0.42518648    -0.02600
C113        C  0.02329257  0.31892937  0.42312028     0.07300
C114        C  0.04694001  0.33947237  0.37474067    -0.02800
Br115      Br  0.03249893  0.03125345  0.31892013    -0.01300
Br116      Br  0.11223884  0.02953878  0.29812189    -0.01400
Br117      Br  0.30711414  0.23964912  0.37591357    -0.01400
Br118      Br  0.04061220  0.21875209  0.43445103    -0.01400
C119        C  0.21924950  0.25692421  0.41735670    -0.02500
C120        C  0.22281476  0.26490440  0.36209636     0.07200
C121        C  0.26098039  0.28868780  0.34200716    -0.02600
C122        C  0.28856813  0.31984708  0.37550340    -0.02600
C123        C  0.29110996  0.31095229  0.43128624     0.07300
C124        C  0.25493253  0.27141803  0.44733463    -0.02800
Br125      Br  0.25129174  0.22196865  0.47666902    -0.01300
Br126      Br  0.16722782  0.21945981  0.44701917    -0.01400
Br127      Br  0.28017404  0.02937681  0.35280594    -0.01400
Br128      Br  0.27087677  0.28715630  0.26729768    -0.01400
C129        C  0.00810753  0.07873361  0.44212692    -0.02500
C130        C  0.02557149  0.05423205  0.44971848     0.07200
C131        C  0.06702849  0.07835916  0.43590741    -0.02600
C132        C  0.07976304  0.10444390  0.39032639    -0.02600
C133        C  0.05566375  0.11848556  0.36972018     0.07300
C134        C  0.01967590  0.10597464  0.39729292    -0.02800
Br135      Br  0.98549354  0.12650188  0.37746784    -0.01300
Br136      Br  0.34284989  0.11298175  0.50035272    -0.01400
Br137      Br  0.13201503  0.12245726  0.36138694    -0.01400
Br138      Br  0.10459469  0.11451315  0.48795142    -0.01400
C139        C  0.00707790  0.28846872  0.12011248    -0.02500
C140        C  0.02240441  0.30956918  0.06812377     0.07200
C141        C  0.05951366  0.31123851  0.05522332    -0.02600
C142        C  0.08048042  0.30177830  0.09393000    -0.02600
C143        C  0.06653337  0.29088158  0.14650142     0.07300
C144        C  0.03158493  0.28813641  0.16037880    -0.02800
Br145      Br  0.01372998  0.27501845  0.23456342    -0.01300
Br146      Br  0.28819160  0.24101944  0.13533807    -0.01400
Br147      Br  0.12967147  0.30404866  0.07716214    -0.01400
Br148      Br  0.08159850  0.31538192  0.98551827    -0.01400
C149        C  0.25807065  0.32489038  0.14864816    -0.02500
C150        C  0.22220147  0.28949600  0.13591745     0.07200
C151        C  0.21989661  0.26704888  0.09036789    -0.02600
C152        C  0.25464423  0.27722302  0.05994712    -0.02600
C153        C  0.29362647  0.31478691  0.07171116     0.07300
C154        C  0.29329141  0.33300756  0.12335504    -0.02800
Br155      Br  0.33606718  0.02289760  0.17489344    -0.01300
Br156      Br  0.25904315  0.36138030  0.20408333    -0.01400
Br157      Br  0.24378891  0.22627331  0.02569569    -0.01400
Br158      Br  0.16709822  0.22179225  0.07057900    -0.01400
C159        C  0.02154403  0.10262335  0.10872665    -0.02500
C160        C  0.05697373  0.11622645  0.13641571     0.07200
C161        C  0.07906031  0.09797156  0.12398385    -0.02600
C162        C  0.06719345  0.06801182  0.08277360    -0.02600
C163        C  0.02919025  0.05048959  0.05569611     0.07300
C164        C  0.01197960  0.07635960  0.06358722    -0.02800
Br165      Br  0.34026407  0.10975720  0.00805762    -0.01300
Br166      Br  0.32069356  0.12323902  0.12828420    -0.01400
Br167      Br  0.11284893  0.06823498  0.05529936    -0.01400
Br168      Br  0.12121325  0.10670000  0.17230455    -0.01400
O169        O  0.10982591  0.50981100  0.17712648    -0.86000
O170        O  0.18396704  0.57311733  0.20395665    -0.83000
C171        C  0.19019111  0.60457979  0.17719503     0.97500
O172        O  0.17158872  0.62215277  0.18811147    -0.83100
O173        O  0.10921683  0.62879774  0.21706753    -0.85700
C174        C  0.08210440  0.60586321  0.18415672     1.02000
O175        O  0.06448456  0.56668919  0.18725973    -0.78500
O176        O  0.05092552  0.48766343  0.20979981    -0.78700
C177        C  0.07301961  0.48437019  0.17577069     1.01900
O178        O  0.09243242  0.48212286  0.28820591    -0.86000
O179        O  0.16416577  0.54953930  0.31618851    -0.83000
C180        C  0.18936347  0.58703114  0.32543787     0.97500
O181        O  0.18897933  0.61580174  0.29953972    -0.83100
O182        O  0.12283938  0.61861804  0.32944782    -0.85700
C183        C  0.08659435  0.60670429  0.33332128     1.02000
O184        O  0.06187318  0.58055145  0.30042520    -0.78500
O185        O  0.05974020  0.50865030  0.32209203    -0.78700
C186        C  0.06995312  0.48237650  0.32452819     1.01900
Cr187      Cr  0.13604949  0.53107518  0.24679165     1.93700
Cr188      Cr  0.14586294  0.61701346  0.25849157     1.93200
Cr189      Cr  0.06305879  0.53772364  0.25462505     1.39100
O190        O  0.11521980  0.56218399  0.25364510    -1.23700
C191        C  0.00234933  0.66745000  0.03792180    -0.03100
C192        C  0.00127621  0.67005371  0.46079192    -0.03100
O193        O  0.16627795  0.43584689  0.81943467    -0.86000
O194        O  0.23304272  0.51204513  0.78849219    -0.83000
C195        C  0.25693990  0.51507893  0.82408512     0.97500
O196        O  0.26956377  0.49083619  0.82129698    -0.83100
O197        O  0.27549100  0.42379034  0.79615820    -0.85700
C198        C  0.25048128  0.39358911  0.82515542     1.02000
O199        O  0.21378421  0.37657774  0.81730967    -0.78500
O200        O  0.14526123  0.37292498  0.79188499    -0.78700
C201        C  0.14385513  0.39696840  0.82603253     1.01900
O202        O  0.14443579  0.41767309  0.70807195    -0.86000
O203        O  0.21572468  0.48839651  0.67864972    -0.83000
C204        C  0.25268129  0.51392207  0.67376126     0.97500
O205        O  0.27662777  0.51284851  0.70667247    -0.83100
O206        O  0.27623332  0.44156601  0.68430683    -0.85700
C207        C  0.26231642  0.40337921  0.67729702     1.02000
O208        O  0.23273163  0.37635150  0.70473294    -0.78500
O209        O  0.16588068  0.37869388  0.67800753    -0.78700
C210        C  0.14240329  0.39159767  0.67451314     1.02100
Cr211      Cr  0.19178544  0.46138917  0.74881604     1.93700
Cr212      Cr  0.27046703  0.46510994  0.75197722     1.93200
Cr213      Cr  0.19148757  0.38043443  0.74778662     1.39100
O214        O  0.21803398  0.43544731  0.74902327    -1.23700
C215        C  0.32969373  0.33138991  0.96661103    -0.03100
C216        C  0.99946872  0.66544018  0.53211981    -0.03100
C217        C  0.25057112  0.56905100  0.87710441    -0.02500
C218        C  0.27061848  0.54775298  0.86754623     0.07200
C219        C  0.30305160  0.55747822  0.90117419    -0.02600
C220        C  0.31470703  0.58701599  0.94302331    -0.02600
C221        C  0.30163553  0.61651027  0.94520253     0.07300
C222        C  0.26484694  0.60167531  0.91548544    -0.02800
Br223      Br  0.22344791  0.61143928  0.93763410    -0.01300
Br224      Br  0.20236519  0.55425069  0.83763601    -0.01400
Br225      Br  0.99355491  0.56494794  0.00489903    -0.01400
Br226      Br  0.00159936  0.53274001  0.89000103    -0.01400
C227        C  0.04281290  0.32902252  0.88740792    -0.02500
C228        C  0.03892475  0.35077673  0.93302772     0.07200
C229        C  0.07526593  0.39173302  0.93944411    -0.02600
C230        C  0.11138618  0.40411978  0.91076788    -0.02600
C231        C  0.11249106  0.37943822  0.86983534     0.07300
C232        C  0.07969128  0.33922751  0.86580791    -0.02800
Br233      Br  0.08589202  0.62799829  0.84127915    -0.01300
Br234      Br  0.00539790  0.63773144  0.82971606    -0.01400
Br235      Br  0.16137213  0.45374445  0.93119394    -0.01400
Br236      Br  0.07851316  0.44099949  0.96442598    -0.01400
C237        C  0.26374929  0.38189196  0.92075436    -0.02500
C238        C  0.26532318  0.37641207  0.86551653     0.07200
C239        C  0.28646591  0.35903923  0.84796612    -0.02600
C240        C  0.31661505  0.36319692  0.88088507    -0.02600
C241        C  0.31088238  0.35699711  0.93851106     0.07300
C242        C  0.28069351  0.36602544  0.95726556    -0.02800
Br243      Br  0.25503114  0.68998134  0.02627175    -0.01300
Br244      Br  0.23609007  0.40884976  0.94468147    -0.01400
Br245      Br  0.03162923  0.40796662  0.84868612    -0.01400
Br246      Br  0.28306014  0.34234047  0.77441015    -0.01400
C247        C  0.25196087  0.57160788  0.62484600    -0.02500
C248        C  0.26813888  0.54690473  0.63115587     0.07200
C249        C  0.29939296  0.55414445  0.59728121    -0.02600
C250        C  0.31931137  0.59037433  0.56425536    -0.02600
C251        C  0.30396779  0.61775352  0.55544129     0.07300
C252        C  0.26574925  0.60224114  0.58356382    -0.02800
Br253      Br  0.22040842  0.60376480  0.55957936    -0.01300
Br254      Br  0.21198926  0.56556499  0.67641867    -0.01400
Br255      Br  0.03706424  0.60107231  0.54190513    -0.01400
Br256      Br  0.31523819  0.51354530  0.59761561    -0.01400
C257        C  0.07115122  0.34604760  0.65344749    -0.02500
C258        C  0.10936939  0.37330252  0.63513518     0.07200
C259        C  0.11491416  0.38372894  0.58076124    -0.02600
C260        C  0.08189408  0.36509777  0.54498233    -0.02600
C261        C  0.04083678  0.34612427  0.56476485     0.07300
C262        C  0.03811089  0.33797915  0.62293925    -0.02800
Br263      Br  0.99251608  0.32034137  0.66949775    -0.01300
Br264      Br  0.06457385  0.31717911  0.71979447    -0.01400
Br265      Br  0.10025181  0.35727925  0.47752583    -0.01400
Br266      Br  0.16897336  0.42161155  0.55565660    -0.01400
C267        C  0.28010979  0.35835062  0.55097434    -0.02500
C268        C  0.31825998  0.36227804  0.55941578     0.07200
C269        C  0.34085750  0.39395490  0.60038046    -0.02600
C270        C  0.32208152  0.40523931  0.63977118    -0.02600
C271        C  0.28157992  0.39033857  0.63703826     0.07300
C272        C  0.26100659  0.36815137  0.59174270    -0.02800
Br273      Br  0.20647255  0.35417545  0.58399976    -0.01300
Br274      Br  0.25491180  0.68619625  0.48289729    -0.01400
Br275      Br  0.01848940  0.44093984  0.69980355    -0.01400
Br276      Br  0.06449039  0.43085002  0.60284036    -0.01400
C277        C  0.07420979  0.66265724  0.35398065    -0.02500
C278        C  0.07238822  0.62652921  0.37121182     0.07200
C279        C  0.04466402  0.60260880  0.41163437    -0.02600
C280        C  0.01441376  0.61046935  0.42518665    -0.02600
C281        C  0.02329266  0.65226285  0.42312029     0.07300
C282        C  0.04693997  0.67280580  0.37474057    -0.02800
Br283      Br  0.03249885  0.36458685  0.31892006    -0.01300
Br284      Br  0.11223871  0.36287191  0.29812116    -0.01400
Br285      Br  0.30711454  0.57298274  0.37591355    -0.01400
Br286      Br  0.04061269  0.55208574  0.43445099    -0.01400
C287        C  0.21924953  0.59025748  0.41735682    -0.02500
C288        C  0.22281490  0.59823772  0.36209663     0.07200
C289        C  0.26098031  0.62202101  0.34200720    -0.02600
C290        C  0.28856812  0.65318036  0.37550362    -0.02600
C291        C  0.29111001  0.64428560  0.43128628     0.07300
C292        C  0.25493269  0.60475134  0.44733489    -0.02800
Br293      Br  0.25129201  0.55530200  0.47666901    -0.01300
Br294      Br  0.16722789  0.55279314  0.44701925    -0.01400
Br295      Br  0.28017397  0.36271037  0.35280632    -0.01400
Br296      Br  0.27087665  0.62048966  0.26729758    -0.01400
C297        C  0.00810757  0.41206703  0.44212702    -0.02500
C298        C  0.02557161  0.38756543  0.44971847     0.07200
C299        C  0.06702851  0.41169262  0.43590739    -0.02600
C300        C  0.07976333  0.43777733  0.39032626    -0.02600
C301        C  0.05566337  0.45181898  0.36972028     0.07300
C302        C  0.01967630  0.43930819  0.39729299    -0.02800
Br303      Br  0.98549376  0.45983551  0.37746793    -0.01300
Br304      Br  0.34284954  0.44631477  0.50035300    -0.01400
Br305      Br  0.13201520  0.45579086  0.36138694    -0.01400
Br306      Br  0.10459489  0.44784624  0.48795144    -0.01400
C307        C  0.00707806  0.62180205  0.12011224    -0.02500
C308        C  0.02240448  0.64290258  0.06812343     0.07200
C309        C  0.05951394  0.64457196  0.05522325    -0.02600
C310        C  0.08048068  0.63511208  0.09392982    -0.02600
C311        C  0.06653359  0.62421492  0.14650152     0.07300
C312        C  0.03158489  0.62146972  0.16037838    -0.02800
Br313      Br  0.01372964  0.60835148  0.23456303    -0.01300
Br314      Br  0.28819200  0.57435243  0.13533703    -0.01400
Br315      Br  0.12967199  0.63738291  0.07716227    -0.01400
Br316      Br  0.08159858  0.64871500  0.98551816    -0.01400
C317        C  0.25807097  0.65822380  0.14864836    -0.02500
C318        C  0.22220162  0.62282938  0.13591757     0.07200
C319        C  0.21989684  0.60038239  0.09036802    -0.02600
C320        C  0.25464430  0.61055651  0.05994712    -0.02600
C321        C  0.29362673  0.64812038  0.07171118     0.07300
C322        C  0.29329158  0.66634096  0.12335518    -0.02800
Br323      Br  0.33606731  0.35623102  0.17489306    -0.01300
Br324      Br  0.25904331  0.69471371  0.20408334    -0.01400
Br325      Br  0.24378877  0.55960688  0.02569530    -0.01400
Br326      Br  0.16709824  0.55512589  0.07057930    -0.01400
C327        C  0.02154433  0.43595695  0.10872632    -0.02500
C328        C  0.05697375  0.44955996  0.13641543     0.07200
C329        C  0.07906049  0.43130497  0.12398367    -0.02600
C330        C  0.06719366  0.40134545  0.08277314    -0.02600
C331        C  0.02919055  0.38382324  0.05569570     0.07300
C332        C  0.01197981  0.40969322  0.06358687    -0.02800
Br333      Br  0.34026377  0.44309027  0.00805713    -0.01300
Br334      Br  0.32069360  0.45657245  0.12828355    -0.01400
Br335      Br  0.11284924  0.40156885  0.05529890    -0.01400
Br336      Br  0.12121310  0.44003307  0.17230451    -0.01400
O337        O  0.10982593  0.84314439  0.17712651    -0.86000
O338        O  0.18396686  0.90645069  0.20395663    -0.83000
C339        C  0.19019070  0.93791288  0.17719520     0.97500
O340        O  0.17158830  0.95548592  0.18811154    -0.83100
O341        O  0.10921657  0.96213093  0.21706800    -0.85700
C342        C  0.08210396  0.93919590  0.18415695     1.02000
O343        O  0.06448437  0.90002259  0.18725979    -0.78500
O344        O  0.05092549  0.82099676  0.20979973    -0.78700
C345        C  0.07301891  0.81770330  0.17577094     1.01900
O346        O  0.09243253  0.81545611  0.28820567    -0.86000
O347        O  0.16416572  0.88287260  0.31618850    -0.83000
C348        C  0.18936325  0.92036397  0.32543835     0.97500
O349        O  0.18897908  0.94913501  0.29953950    -0.83100
O350        O  0.12283937  0.95195116  0.32944806    -0.85700
C351        C  0.08659356  0.94003705  0.33332126     1.02000
O352        O  0.06187307  0.91388476  0.30042564    -0.78500
O353        O  0.05974025  0.84198340  0.32209193    -0.78700
C354        C  0.06995259  0.81570988  0.32452870     1.01900
Cr355      Cr  0.13604931  0.86440846  0.24679168     1.93700
Cr356      Cr  0.14586266  0.95034659  0.25849176     1.93200
Cr357      Cr  0.06305859  0.87105681  0.25462520     1.39100
O358        O  0.11521961  0.89551724  0.25364504    -1.23700
C359        C  0.00234900  0.00078322  0.03792206    -0.03100
C360        C  0.00127618  0.00338708  0.46079192    -0.03100
O361        O  0.16627790  0.76918041  0.81943471    -0.86000
O362        O  0.23304273  0.84537852  0.78849233    -0.83000
C363        C  0.25693942  0.84841248  0.82408489     0.97500
O364        O  0.26956383  0.82416960  0.82129705    -0.83100
O365        O  0.27549131  0.75712407  0.79615822    -0.85700
C366        C  0.25048090  0.72692233  0.82515557     1.02000
O367        O  0.21378467  0.70991126  0.81730984    -0.78500
O368        O  0.14526156  0.70625842  0.79188549    -0.78700
C369        C  0.14385501  0.73030120  0.82603260     1.01900
O370        O  0.14443567  0.75100633  0.70807215    -0.86000
O371        O  0.21572431  0.82172964  0.67864979    -0.83000
C372        C  0.25268158  0.84725569  0.67376119     0.97500
O373        O  0.27662754  0.84618190  0.70667240    -0.83100
O374        O  0.27623336  0.77489961  0.68430694    -0.85700
C375        C  0.26231648  0.73671254  0.67729697     1.02000
O376        O  0.23273186  0.70968509  0.70473317    -0.78500
O377        O  0.16588065  0.71202711  0.67800783    -0.78700
C378        C  0.14240301  0.72493084  0.67451327     1.02100
Cr379      Cr  0.19178534  0.79472248  0.74881615     1.93700
Cr380      Cr  0.27046708  0.79844345  0.75197728     1.93200
Cr381      Cr  0.19148766  0.71376782  0.74778670     1.39100
O382        O  0.21803401  0.76878074  0.74902327    -1.23700
C383        C  0.32969393  0.66472335  0.96661099    -0.03100
C384        C  0.99946864  0.99877362  0.53211993    -0.03100
C385        C  0.25057080  0.90238430  0.87710467    -0.02500
C386        C  0.27061861  0.88108647  0.86754626     0.07200
C387        C  0.30305145  0.89081172  0.90117408    -0.02600
C388        C  0.31470695  0.92034939  0.94302339    -0.02600
C389        C  0.30163543  0.94984368  0.94520262     0.07300
C390        C  0.26484686  0.93500875  0.91548555    -0.02800
Br391      Br  0.22344786  0.94477289  0.93763405    -0.01300
Br392      Br  0.20236490  0.88758377  0.83763651    -0.01400
Br393      Br  0.99355433  0.89828098  0.00489912    -0.01400
Br394      Br  0.00159952  0.86607395  0.89000064    -0.01400
C395        C  0.04281310  0.66235592  0.88740814    -0.02500
C396        C  0.03892489  0.68410998  0.93302791     0.07200
C397        C  0.07526624  0.72506643  0.93944441    -0.02600
C398        C  0.11138629  0.73745302  0.91076791    -0.02600
C399        C  0.11249137  0.71277184  0.86983550     0.07300
C400        C  0.07969134  0.67256074  0.86580801    -0.02800
Br401      Br  0.08589188  0.96133166  0.84127948    -0.01300
Br402      Br  0.00539790  0.97106483  0.82971608    -0.01400
Br403      Br  0.16137236  0.78707774  0.93119396    -0.01400
Br404      Br  0.07851344  0.77433287  0.96442634    -0.01400
C405        C  0.26374977  0.71522571  0.92075445    -0.02500
C406        C  0.26532383  0.70974577  0.86551656     0.07200
C407        C  0.28646616  0.69237287  0.84796615    -0.02600
C408        C  0.31661546  0.69653063  0.88088507    -0.02600
C409        C  0.31088262  0.69033063  0.93851112     0.07300
C410        C  0.28069380  0.69935875  0.95726557    -0.02800
Br411      Br  0.25503116  0.02331490  0.02627189    -0.01300
Br412      Br  0.23609109  0.74218401  0.94468148    -0.01400
Br413      Br  0.03162964  0.74130025  0.84868646    -0.01400
Br414      Br  0.28306039  0.67567413  0.77441012    -0.01400
C415        C  0.25196067  0.90494124  0.62484559    -0.02500
C416        C  0.26813848  0.88023795  0.63115593     0.07200
C417        C  0.29939282  0.88747782  0.59728108    -0.02600
C418        C  0.31931124  0.92370763  0.56425551    -0.02600
C419        C  0.30396780  0.95108703  0.55544127     0.07300
C420        C  0.26574908  0.93557449  0.58356367    -0.02800
Br421      Br  0.22040851  0.93709873  0.55957942    -0.01300
Br422      Br  0.21198851  0.89889774  0.67641791    -0.01400
Br423      Br  0.03706442  0.93440591  0.54190586    -0.01400
Br424      Br  0.31523765  0.84687840  0.59761516    -0.01400
C425        C  0.07115124  0.67938092  0.65344765    -0.02500
C426        C  0.10936966  0.70663585  0.63513530     0.07200
C427        C  0.11491417  0.71706229  0.58076143    -0.02600
C428        C  0.08189429  0.69843124  0.54498230    -0.02600
C429        C  0.04083683  0.67945752  0.56476492     0.07300
C430        C  0.03811110  0.67131246  0.62293914    -0.02800
Br431      Br  0.99251627  0.65367499  0.66949774    -0.01300
Br432      Br  0.06457373  0.65051213  0.71979446    -0.01400
Br433      Br  0.10025190  0.69061264  0.47752588    -0.01400
Br434      Br  0.16897337  0.75494523  0.55565695    -0.01400
C435        C  0.28010988  0.69168414  0.55097428    -0.02500
C436        C  0.31826025  0.69561149  0.55941577     0.07200
C437        C  0.34085754  0.72728830  0.60038049    -0.02600
C438        C  0.32208171  0.73857290  0.63977094    -0.02600
C439        C  0.28157995  0.72367224  0.63703818     0.07300
C440        C  0.26100676  0.70148486  0.59174258    -0.02800
Br441      Br  0.20647283  0.68750937  0.58399968    -0.01300
Br442      Br  0.25491184  0.01952987  0.48289688    -0.01400
Br443      Br  0.01848959  0.77427353  0.69980327    -0.01400
Br444      Br  0.06449048  0.76418334  0.60284064    -0.01400
C445        C  0.07420978  0.99599039  0.35398119    -0.02500
C446        C  0.07238818  0.95986237  0.37121231     0.07200
C447        C  0.04466384  0.93594195  0.41163490    -0.02600
C448        C  0.01441356  0.94380251  0.42518692    -0.02600
C449        C  0.02329252  0.98559605  0.42312055     0.07300
C450        C  0.04694004  0.00613902  0.37474097    -0.02800
Br451      Br  0.03249866  0.69792024  0.31892002    -0.01300
Br452      Br  0.11223868  0.69620552  0.29812113    -0.01400
Br453      Br  0.30711422  0.90631580  0.37591393    -0.01400
Br454      Br  0.04061232  0.88541884  0.43445146    -0.01400
C455        C  0.21924936  0.92359110  0.41735713    -0.02500
C456        C  0.22281468  0.93157100  0.36209638     0.07200
C457        C  0.26098010  0.95535411  0.34200731    -0.02600
C458        C  0.28856806  0.98651350  0.37550333    -0.02600
C459        C  0.29110997  0.97761892  0.43128631     0.07300
C460        C  0.25493253  0.93808491  0.44733490    -0.02800
Br461      Br  0.25129160  0.88863538  0.47666909    -0.01300
Br462      Br  0.16722769  0.88612705  0.44701968    -0.01400
Br463      Br  0.28017367  0.69604351  0.35280670    -0.01400
Br464      Br  0.27087628  0.95382269  0.26729761    -0.01400
C465        C  0.00810757  0.74540033  0.44212708    -0.02500
C466        C  0.02557159  0.72089874  0.44971863     0.07200
C467        C  0.06702852  0.74502590  0.43590753    -0.02600
C468        C  0.07976324  0.77111065  0.39032653    -0.02600
C469        C  0.05566364  0.78515233  0.36972023     0.07300
C470        C  0.01967615  0.77264139  0.39729312    -0.02800
Br471      Br  0.98549381  0.79316879  0.37746793    -0.01300
Br472      Br  0.34284961  0.77964814  0.50035299    -0.01400
Br473      Br  0.13201511  0.78912397  0.36138696    -0.01400
Br474      Br  0.10459490  0.78117957  0.48795167    -0.01400
C475        C  0.00707755  0.95513512  0.12011242    -0.02500
C476        C  0.02240414  0.97623564  0.06812369     0.07200
C477        C  0.05951337  0.97790493  0.05522349    -0.02600
C478        C  0.08048026  0.96844505  0.09393013    -0.02600
C479        C  0.06653323  0.95754832  0.14650176     0.07300
C480        C  0.03158453  0.95480285  0.16037875    -0.02800
Br481      Br  0.01372914  0.94168423  0.23456332    -0.01300
Br482      Br  0.28819161  0.90768546  0.13533700    -0.01400
Br483      Br  0.12967175  0.97071626  0.07716261    -0.01400
Br484      Br  0.08159802  0.98204797  0.98551839    -0.01400
C485        C  0.25807047  0.99155707  0.14864840    -0.02500
C486        C  0.22220136  0.95616281  0.13591745     0.07200
C487        C  0.21989646  0.93371564  0.09036804    -0.02600
C488        C  0.25464413  0.94388991  0.05994711    -0.02600
C489        C  0.29362635  0.98145362  0.07171135     0.07300
C490        C  0.29329130  0.99967415  0.12335542    -0.02800
Br491      Br  0.33606754  0.68956433  0.17489306    -0.01300
Br492      Br  0.25904290  0.02804703  0.20408342    -0.01400
Br493      Br  0.24378843  0.89294023  0.02569527    -0.01400
Br494      Br  0.16709791  0.88845901  0.07057939    -0.01400
C495        C  0.02154387  0.76929010  0.10872639    -0.02500
C496        C  0.05697372  0.78289328  0.13641543     0.07200
C497        C  0.07906023  0.76463845  0.12398342    -0.02600
C498        C  0.06719353  0.73467873  0.08277321    -0.02600
C499        C  0.02919024  0.71715647  0.05569570     0.07300
C500        C  0.01197963  0.74302638  0.06358689    -0.02800
Br501      Br  0.34026394  0.77642388  0.00805723    -0.01300
Br502      Br  0.32069333  0.78990544  0.12828384    -0.01400
Br503      Br  0.11284911  0.73490219  0.05529890    -0.01400
Br504      Br  0.12121313  0.77336673  0.17230418    -0.01400
O505        O  0.44315922  0.17647764  0.17712656    -0.86000
O506        O  0.51730028  0.23978406  0.20395650    -0.83000
C507        C  0.52352443  0.27124596  0.17719474     0.97500
O508        O  0.50492168  0.28881933  0.18811150    -0.83100
O509        O  0.44254998  0.29546420  0.21706766    -0.85700
C510        C  0.41543744  0.27252908  0.18415692     1.02000
O511        O  0.39781785  0.23335581  0.18725952    -0.78500
O512        O  0.38425882  0.15432999  0.20980011    -0.78700
C513        C  0.40635302  0.15103672  0.17577094     1.01900
O514        O  0.42576619  0.14878952  0.28820542    -0.86000
O515        O  0.49749920  0.21620596  0.31618860    -0.83000
C516        C  0.52269689  0.25369787  0.32543809     0.97500
O517        O  0.52231255  0.28246833  0.29953955    -0.83100
O518        O  0.45617277  0.28528456  0.32944790    -0.85700
C519        C  0.41992699  0.27337038  0.33332100     1.02000
O520        O  0.39520646  0.24721813  0.30042544    -0.78500
O521        O  0.39307376  0.17531665  0.32209196    -0.78700
C522        C  0.40328544  0.14904375  0.32452941     1.01900
Cr523      Cr  0.46938281  0.19774186  0.24679167     1.93700
Cr524      Cr  0.47919614  0.28367998  0.25849155     1.93200
Cr525      Cr  0.39639193  0.20439014  0.25462514     1.39100
O526        O  0.44855302  0.22885059  0.25364514    -1.23700
C527        C  0.33568251  0.33411663  0.03792178    -0.03100
C528        C  0.33460949  0.33672034  0.46079178    -0.03100
O529        O  0.49961138  0.10251389  0.81943503    -0.86000
O530        O  0.56637605  0.17871177  0.78849254    -0.83000
C531        C  0.59027278  0.18174599  0.82408547     0.97500
O532        O  0.60289705  0.15750263  0.82129709    -0.83100
O533        O  0.60882452  0.09045723  0.79615808    -0.85700
C534        C  0.58381409  0.06025547  0.82515577     1.02000
O535        O  0.54711782  0.04324450  0.81730989    -0.78500
O536        O  0.47859468  0.03959189  0.79188555    -0.78700
C537        C  0.47718806  0.06363384  0.82603284     1.01900
O538        O  0.47776897  0.08433986  0.70807253    -0.86000
O539        O  0.54905747  0.15506304  0.67865001    -0.83000
C540        C  0.58601522  0.18058892  0.67376234     0.97500
O541        O  0.60996070  0.17951530  0.70667231    -0.83100
O542        O  0.60956646  0.10823275  0.68430682    -0.85700
C543        C  0.59565012  0.07004667  0.67729671     1.02000
O544        O  0.56606490  0.04301822  0.70473311    -0.78500
O545        O  0.49921383  0.04536062  0.67800784    -0.78700
C546        C  0.47573637  0.05826419  0.67451325     1.02100
Cr547      Cr  0.52511864  0.12805586  0.74881641     1.93700
Cr548      Cr  0.60380031  0.13177674  0.75197737     1.93200
Cr549      Cr  0.52482086  0.04710115  0.74778671     1.39100
O550        O  0.55136724  0.10211409  0.74902334    -1.23700
C551        C  0.66302716  0.99805675  0.96661120    -0.03100
C552        C  0.33280202  0.33210678  0.53211989    -0.03100
C553        C  0.58390424  0.23571763  0.87710486    -0.02500
C554        C  0.60395181  0.21441932  0.86754629     0.07200
C555        C  0.63638487  0.22414500  0.90117433    -0.02600
C556        C  0.64804029  0.25368251  0.94302335    -0.02600
C557        C  0.63496884  0.28317691  0.94520267     0.07300
C558        C  0.59818014  0.26834175  0.91548567    -0.02800
Br559      Br  0.55678121  0.27810582  0.93763444    -0.01300
Br560      Br  0.53569828  0.22091709  0.83763656    -0.01400
Br561      Br  0.32688841  0.23161460  0.00489901    -0.01400
Br562      Br  0.33493288  0.19940699  0.89000066    -0.01400
C563        C  0.37614629  0.99568935  0.88740823    -0.02500
C564        C  0.37225804  0.01744339  0.93302818     0.07200
C565        C  0.40859945  0.05839975  0.93944457    -0.02600
C566        C  0.44471942  0.07078614  0.91076830    -0.02600
C567        C  0.44582472  0.04610540  0.86983575     0.07300
C568        C  0.41302435  0.00589398  0.86580814    -0.02800
Br569      Br  0.41922521  0.29466491  0.84127912    -0.01300
Br570      Br  0.33873094  0.30439785  0.82971606    -0.01400
Br571      Br  0.49470562  0.12041078  0.93119470    -0.01400
Br572      Br  0.41184677  0.10766613  0.96442676    -0.01400
C573        C  0.59708298  0.04855911  0.92075446    -0.02500
C574        C  0.59865688  0.04307910  0.86551668     0.07200
C575        C  0.61979941  0.02570612  0.84796631    -0.02600
C576        C  0.64994854  0.02986374  0.88088532    -0.02600
C577        C  0.64421587  0.02366396  0.93851118     0.07300
C578        C  0.61402714  0.03269250  0.95726574    -0.02800
Br579      Br  0.58836432  0.35664797  0.02627183    -0.01300
Br580      Br  0.56942421  0.07551731  0.94468178    -0.01400
Br581      Br  0.36496287  0.07463384  0.84868688    -0.01400
Br582      Br  0.61639355  0.00900713  0.77441047    -0.01400
C583        C  0.58529409  0.23827459  0.62484606    -0.02500
C584        C  0.60147169  0.21357166  0.63115592     0.07200
C585        C  0.63272597  0.22081096  0.59728128    -0.02600
C586        C  0.65264444  0.25704107  0.56425554    -0.02600
C587        C  0.63730103  0.28442022  0.55544133     0.07300
C588        C  0.59908234  0.26890787  0.58356364    -0.02800
Br589      Br  0.55374154  0.27043139  0.55957901    -0.01300
Br590      Br  0.54532218  0.23223162  0.67641830    -0.01400
Br591      Br  0.37039734  0.26773873  0.54190540    -0.01400
Br592      Br  0.64857072  0.18021162  0.59761523    -0.01400
C593        C  0.40448445  0.01271437  0.65344770    -0.02500
C594        C  0.44270277  0.03996937  0.63513558     0.07200
C595        C  0.44824742  0.05039602  0.58076159    -0.02600
C596        C  0.41522745  0.03176488  0.54498256    -0.02600
C597        C  0.37417011  0.01279115  0.56476506     0.07300
C598        C  0.37144419  0.00464590  0.62293933    -0.02800
Br599      Br  0.32584936  0.98700832  0.66949778    -0.01300
Br600      Br  0.39790702  0.98384551  0.71979444    -0.01400
Br601      Br  0.43358514  0.02394620  0.47752614    -0.01400
Br602      Br  0.50230653  0.08827914  0.55565698    -0.01400
C603        C  0.61344323  0.02501781  0.55097404    -0.02500
C604        C  0.65159348  0.02894501  0.55941587     0.07200
C605        C  0.67419079  0.06062174  0.60038059    -0.02600
C606        C  0.65541499  0.07190633  0.63977123    -0.02600
C607        C  0.61491308  0.05700551  0.63703801     0.07300
C608        C  0.59434023  0.03481882  0.59174232    -0.02800
Br609      Br  0.53980641  0.02084361  0.58399891    -0.01300
Br610      Br  0.58824499  0.35286292  0.48289718    -0.01400
Br611      Br  0.35182273  0.10760680  0.69980359    -0.01400
Br612      Br  0.39782383  0.09751691  0.60284078    -0.01400
C613        C  0.40754308  0.32932368  0.35398075    -0.02500
C614        C  0.40572149  0.29319574  0.37121198     0.07200
C615        C  0.37799713  0.26927522  0.41163446    -0.02600
C616        C  0.34774684  0.27713580  0.42518652    -0.02600
C617        C  0.35662587  0.31892931  0.42312033     0.07300
C618        C  0.38027336  0.33947236  0.37474071    -0.02800
Br619      Br  0.36583220  0.03125347  0.31892011    -0.01300
Br620      Br  0.44557225  0.02953879  0.29812193    -0.01400
Br621      Br  0.64044755  0.23964912  0.37591352    -0.01400
Br622      Br  0.37394565  0.21875210  0.43445103    -0.01400
C623        C  0.55258274  0.25692412  0.41735673    -0.02500
C624        C  0.55614812  0.26490448  0.36209643     0.07200
C625        C  0.59431362  0.28868780  0.34200719    -0.02600
C626        C  0.62190141  0.31984710  0.37550342    -0.02600
C627        C  0.62444317  0.31095227  0.43128629     0.07300
C628        C  0.58826583  0.27141804  0.44733470    -0.02800
Br629      Br  0.58462516  0.22196866  0.47666900    -0.01300
Br630      Br  0.50056111  0.21945984  0.44701917    -0.01400
Br631      Br  0.61350754  0.02937685  0.35280596    -0.01400
Br632      Br  0.60420999  0.28715629  0.26729768    -0.01400
C633        C  0.34144088  0.07873357  0.44212686    -0.02500
C634        C  0.35890482  0.05423202  0.44971847     0.07200
C635        C  0.40036192  0.07835927  0.43590752    -0.02600
C636        C  0.41309639  0.10444393  0.39032655    -0.02600
C637        C  0.38899736  0.11848563  0.36972002     0.07300
C638        C  0.35300918  0.10597460  0.39729296    -0.02800
Br639      Br  0.31882684  0.12650188  0.37746785    -0.01300
Br640      Br  0.67618335  0.11298177  0.50035298    -0.01400
Br641      Br  0.46534840  0.12245724  0.36138701    -0.01400
Br642      Br  0.43792791  0.11451316  0.48795165    -0.01400
C643        C  0.34041123  0.28846867  0.12011234    -0.02500
C644        C  0.35573773  0.30956914  0.06812374     0.07200
C645        C  0.39284715  0.31123858  0.05522335    -0.02600
C646        C  0.41381385  0.30177834  0.09393012    -0.02600
C647        C  0.39986674  0.29088160  0.14650139     0.07300
C648        C  0.36491818  0.28813631  0.16037878    -0.02800
Br649      Br  0.34706309  0.27501815  0.23456340    -0.01300
Br650      Br  0.62152503  0.24101943  0.13533804    -0.01400
Br651      Br  0.46300505  0.30404896  0.07716220    -0.01400
Br652      Br  0.41493194  0.31538192  0.98551823    -0.01400
C653        C  0.59140409  0.32489038  0.14864815    -0.02500
C654        C  0.55553460  0.28949601  0.13591756     0.07200
C655        C  0.55323004  0.26704893  0.09036779    -0.02600
C656        C  0.58797752  0.27722302  0.05994715    -0.02600
C657        C  0.62695994  0.31478697  0.07171111     0.07300
C658        C  0.62662470  0.33300757  0.12335510    -0.02800
Br659      Br  0.66940061  0.02289761  0.17489342    -0.01300
Br660      Br  0.59237644  0.36138031  0.20408329    -0.01400
Br661      Br  0.57712215  0.22627331  0.02569569    -0.01400
Br662      Br  0.50043148  0.22179229  0.07057900    -0.01400
C663        C  0.35487743  0.10262342  0.10872679    -0.02500
C664        C  0.39030694  0.11622653  0.13641582     0.07200
C665        C  0.41239364  0.09797154  0.12398399    -0.02600
C666        C  0.40052671  0.06801184  0.08277373    -0.02600
C667        C  0.36252356  0.05048968  0.05569612     0.07300
C668        C  0.34531297  0.07635973  0.06358728    -0.02800
Br669      Br  0.67359748  0.10975725  0.00805750    -0.01300
Br670      Br  0.65402699  0.12323906  0.12828391    -0.01400
Br671      Br  0.44618229  0.06823520  0.05529930    -0.01400
Br672      Br  0.45454667  0.10670001  0.17230454    -0.01400
O673        O  0.44315913  0.50981086  0.17712653    -0.86000
O674        O  0.51730031  0.57311738  0.20395657    -0.83000
C675        C  0.52352440  0.60457943  0.17719536     0.97500
O676        O  0.50492195  0.62215270  0.18811146    -0.83100
O677        O  0.44255011  0.62879767  0.21706753    -0.85700
C678        C  0.41543790  0.60586318  0.18415686     1.02000
O679        O  0.39781788  0.56668915  0.18725970    -0.78500
O680        O  0.38425871  0.48766342  0.20979983    -0.78700
C681        C  0.40635318  0.48437022  0.17577053     1.01900
O682        O  0.42576591  0.48212272  0.28820559    -0.86000
O683        O  0.49749914  0.54953928  0.31618852    -0.83000
C684        C  0.52269674  0.58703103  0.32543774     0.97500
O685        O  0.52231264  0.61580167  0.29953975    -0.83100
O686        O  0.45617286  0.61861807  0.32944777    -0.85700
C687        C  0.41992724  0.60670422  0.33332131     1.02000
O688        O  0.39520652  0.58055152  0.30042530    -0.78500
O689        O  0.39307366  0.50865003  0.32209198    -0.78700
C690        C  0.40328567  0.48237694  0.32452878     1.01900
Cr691      Cr  0.46938271  0.53107518  0.24679170     1.93700
Cr692      Cr  0.47919622  0.61701335  0.25849157     1.93200
Cr693      Cr  0.39639203  0.53772361  0.25462508     1.39100
O694        O  0.44855304  0.56218396  0.25364511    -1.23700
C695        C  0.33568254  0.66745004  0.03792182    -0.03100
C696        C  0.33460961  0.67005376  0.46079190    -0.03100
O697        O  0.49961124  0.43584708  0.81943462    -0.86000
O698        O  0.56637604  0.51204505  0.78849233    -0.83000
C699        C  0.59027280  0.51507916  0.82408499     0.97500
O700        O  0.60289715  0.49083610  0.82129702    -0.83100
O701        O  0.60882427  0.42379030  0.79615838    -0.85700
C702        C  0.58381489  0.39358931  0.82515532     1.02000
O703        O  0.54711742  0.37657765  0.81730963    -0.78500
O704        O  0.47859462  0.37292512  0.79188530    -0.78700
C705        C  0.47718819  0.39696758  0.82603200     1.01900
O706        O  0.47776907  0.41767298  0.70807184    -0.86000
O707        O  0.54905779  0.48839641  0.67864973    -0.83000
C708        C  0.58601527  0.51392223  0.67376172     0.97500
O709        O  0.60996095  0.51284854  0.70667237    -0.83100
O710        O  0.60956661  0.44156612  0.68430692    -0.85700
C711        C  0.59564957  0.40337905  0.67729706     1.02000
O712        O  0.56606506  0.37635155  0.70473297    -0.78500
O713        O  0.49921419  0.37869383  0.67800758    -0.78700
C714        C  0.47573616  0.39159782  0.67451326     1.02100
Cr715      Cr  0.52511868  0.46138915  0.74881602     1.93700
Cr716      Cr  0.60380032  0.46510994  0.75197731     1.93200
Cr717      Cr  0.52482086  0.38043439  0.74778656     1.39100
O718        O  0.55136724  0.43544730  0.74902308    -1.23700
C719        C  0.66302710  0.33138990  0.96661098    -0.03100
C720        C  0.33280209  0.66544018  0.53211981    -0.03100
C721        C  0.58390440  0.56905098  0.87710444    -0.02500
C722        C  0.60395191  0.54775285  0.86754614     0.07200
C723        C  0.63638484  0.55747818  0.90117421    -0.02600
C724        C  0.64804039  0.58701599  0.94302327    -0.02600
C725        C  0.63496895  0.61651024  0.94520260     0.07300
C726        C  0.59818029  0.60167524  0.91548543    -0.02800
Br727      Br  0.55678135  0.61143930  0.93763410    -0.01300
Br728      Br  0.53569849  0.55425071  0.83763609    -0.01400
Br729      Br  0.32688823  0.56494793  0.00489902    -0.01400
Br730      Br  0.33493261  0.53274000  0.89000102    -0.01400
C731        C  0.37614621  0.32902251  0.88740799    -0.02500
C732        C  0.37225808  0.35077658  0.93302770     0.07200
C733        C  0.40859931  0.39173301  0.93944424    -0.02600
C734        C  0.44471946  0.40411950  0.91076776    -0.02600
C735        C  0.44582439  0.37943856  0.86983541     0.07300
C736        C  0.41302450  0.33922730  0.86580774    -0.02800
Br737      Br  0.41922528  0.62799831  0.84127914    -0.01300
Br738      Br  0.33873135  0.63773146  0.82971608    -0.01400
Br739      Br  0.49470547  0.45374419  0.93119398    -0.01400
Br740      Br  0.41184656  0.44099950  0.96442602    -0.01400
C741        C  0.59708267  0.38189194  0.92075437    -0.02500
C742        C  0.59865650  0.37641209  0.86551659     0.07200
C743        C  0.61979918  0.35903917  0.84796610    -0.02600
C744        C  0.64994834  0.36319685  0.88088499    -0.02600
C745        C  0.64421573  0.35699710  0.93851107     0.07300
C746        C  0.61402691  0.36602542  0.95726559    -0.02800
Br747      Br  0.58836457  0.68998136  0.02627175    -0.01300
Br748      Br  0.56942349  0.40884980  0.94468146    -0.01400
Br749      Br  0.36496266  0.40796661  0.84868611    -0.01400
Br750      Br  0.61639335  0.34234046  0.77441014    -0.01400
C751        C  0.58529438  0.57160789  0.62484599    -0.02500
C752        C  0.60147204  0.54690473  0.63115574     0.07200
C753        C  0.63272638  0.55414444  0.59728121    -0.02600
C754        C  0.65264483  0.59037438  0.56425535    -0.02600
C755        C  0.63730124  0.61775354  0.55544128     0.07300
C756        C  0.59908275  0.60224119  0.58356373    -0.02800
Br757      Br  0.55374182  0.60376477  0.55957938    -0.01300
Br758      Br  0.54532269  0.56556499  0.67641871    -0.01400
Br759      Br  0.37039752  0.60107231  0.54190508    -0.01400
Br760      Br  0.64857140  0.51354528  0.59761563    -0.01400
C761        C  0.40448437  0.34604747  0.65344760    -0.02500
C762        C  0.44270297  0.37330250  0.63513531     0.07200
C763        C  0.44824732  0.38372876  0.58076128    -0.02600
C764        C  0.41522750  0.36509775  0.54498239    -0.02600
C765        C  0.37416994  0.34612411  0.56476488     0.07300
C766        C  0.37144430  0.33797904  0.62293931    -0.02800
Br767      Br  0.32584943  0.32034138  0.66949773    -0.01300
Br768      Br  0.39790708  0.31717915  0.71979473    -0.01400
Br769      Br  0.43358521  0.35727922  0.47752584    -0.01400
Br770      Br  0.50230665  0.42161160  0.55565661    -0.01400
C771        C  0.61344310  0.35835068  0.55097424    -0.02500
C772        C  0.65159339  0.36227809  0.55941570     0.07200
C773        C  0.67419075  0.39395490  0.60038047    -0.02600
C774        C  0.65541480  0.40523930  0.63977115    -0.02600
C775        C  0.61491321  0.39033865  0.63703821     0.07300
C776        C  0.59433989  0.36815128  0.59174270    -0.02800
Br777      Br  0.53980597  0.35417545  0.58399978    -0.01300
Br778      Br  0.58824502  0.68619624  0.48289727    -0.01400
Br779      Br  0.35182283  0.44093983  0.69980353    -0.01400
Br780      Br  0.39782379  0.43084998  0.60284038    -0.01400
C781        C  0.40754309  0.66265732  0.35398073    -0.02500
C782        C  0.40572170  0.62652927  0.37121168     0.07200
C783        C  0.37799732  0.60260888  0.41163443    -0.02600
C784        C  0.34774721  0.61046947  0.42518676    -0.02600
C785        C  0.35662605  0.65226299  0.42312043     0.07300
C786        C  0.38027346  0.67280593  0.37474066    -0.02800
Br787      Br  0.36583224  0.36458685  0.31892008    -0.01300
Br788      Br  0.44557200  0.36287190  0.29812110    -0.01400
Br789      Br  0.64044765  0.57298250  0.37591355    -0.01400
Br790      Br  0.37394589  0.55208570  0.43445069    -0.01400
C791        C  0.55258272  0.59025751  0.41735669    -0.02500
C792        C  0.55614826  0.59823767  0.36209656     0.07200
C793        C  0.59431358  0.62202104  0.34200712    -0.02600
C794        C  0.62190141  0.65318038  0.37550363    -0.02600
C795        C  0.62444319  0.64428558  0.43128629     0.07300
C796        C  0.58826590  0.60475132  0.44733483    -0.02800
Br797      Br  0.58462524  0.55530197  0.47666907    -0.01300
Br798      Br  0.50056116  0.55279318  0.44701922    -0.01400
Br799      Br  0.61350720  0.36271035  0.35280634    -0.01400
Br800      Br  0.60421005  0.62048964  0.26729762    -0.01400
C801        C  0.34144099  0.41206698  0.44212697    -0.02500
C802        C  0.35890494  0.38756537  0.44971837     0.07200
C803        C  0.40036194  0.41169258  0.43590735    -0.02600
C804        C  0.41309656  0.43777736  0.39032627    -0.02600
C805        C  0.38899715  0.45181891  0.36972022     0.07300
C806        C  0.35300947  0.43930819  0.39729301    -0.02800
Br807      Br  0.31882705  0.45983549  0.37746793    -0.01300
Br808      Br  0.67618277  0.44631475  0.50035298    -0.01400
Br809      Br  0.46534859  0.45579085  0.36138697    -0.01400
Br810      Br  0.43792813  0.44784624  0.48795144    -0.01400
C811        C  0.34041143  0.62180223  0.12011224    -0.02500
C812        C  0.35573798  0.64290268  0.06812343     0.07200
C813        C  0.39284725  0.64457199  0.05522324    -0.02600
C814        C  0.41381417  0.63511208  0.09392980    -0.02600
C815        C  0.39986691  0.62421495  0.14650137     0.07300
C816        C  0.36491839  0.62146981  0.16037838    -0.02800
Br817      Br  0.34706307  0.60835148  0.23456302    -0.01300
Br818      Br  0.62152514  0.57435220  0.13533702    -0.01400
Br819      Br  0.46300547  0.63738291  0.07716222    -0.01400
Br820      Br  0.41493186  0.64871499  0.98551816    -0.01400
C821        C  0.59140427  0.65822376  0.14864845    -0.02500
C822        C  0.55553513  0.62282959  0.13591758     0.07200
C823        C  0.55323016  0.60038235  0.09036810    -0.02600
C824        C  0.58797777  0.61055663  0.05994702    -0.02600
C825        C  0.62695997  0.64812026  0.07171128     0.07300
C826        C  0.62662504  0.66634089  0.12335532    -0.02800
Br827      Br  0.66940067  0.35623100  0.17489306    -0.01300
Br828      Br  0.59237672  0.69471371  0.20408341    -0.01400
Br829      Br  0.57712206  0.55960685  0.02569524    -0.01400
Br830      Br  0.50043160  0.55512585  0.07057935    -0.01400
C831        C  0.35487760  0.43595689  0.10872638    -0.02500
C832        C  0.39030692  0.44955991  0.13641549     0.07200
C833        C  0.41239374  0.43130489  0.12398371    -0.02600
C834        C  0.40052683  0.40134534  0.08277321    -0.02600
C835        C  0.36252367  0.38382311  0.05569577     0.07300
C836        C  0.34531302  0.40969313  0.06358694    -0.02800
Br837      Br  0.67359716  0.44309025  0.00805722    -0.01300
Br838      Br  0.65402688  0.45657242  0.12828353    -0.01400
Br839      Br  0.44618248  0.40156887  0.05529892    -0.01400
Br840      Br  0.45454637  0.44003306  0.17230455    -0.01400
O841        O  0.44315936  0.84314448  0.17712649    -0.86000
O842        O  0.51730023  0.90645084  0.20395668    -0.83000
C843        C  0.52352423  0.93791297  0.17719514     0.97500
O844        O  0.50492160  0.95548604  0.18811156    -0.83100
O845        O  0.44254979  0.96213095  0.21706782    -0.85700
C846        C  0.41543758  0.93919654  0.18415715     1.02000
O847        O  0.39781763  0.90002240  0.18725982    -0.78500
O848        O  0.38425885  0.82099678  0.20979978    -0.78700
C849        C  0.40635226  0.81770331  0.17577091     1.01900
O850        O  0.42576599  0.81545610  0.28820555    -0.86000
O851        O  0.49749901  0.88287268  0.31618856    -0.83000
C852        C  0.52269668  0.92036428  0.32543826     0.97500
O853        O  0.52231246  0.94913511  0.29953968    -0.83100
O854        O  0.45617270  0.95195118  0.32944797    -0.85700
C855        C  0.41992687  0.94003702  0.33332122     1.02000
O856        O  0.39520636  0.91388471  0.30042564    -0.78500
O857        O  0.39307367  0.84198334  0.32209194    -0.78700
C858        C  0.40328567  0.81571025  0.32452899     1.01900
Cr859      Cr  0.46938267  0.86440852  0.24679169     1.93700
Cr860      Cr  0.47919605  0.95034672  0.25849173     1.93200
Cr861      Cr  0.39639185  0.87105684  0.25462519     1.39100
O862        O  0.44855292  0.89551730  0.25364496    -1.23700
C863        C  0.33568243  0.00078330  0.03792205    -0.03100
C864        C  0.33460954  0.00338711  0.46079191    -0.03100
O865        O  0.49961149  0.76918079  0.81943474    -0.86000
O866        O  0.56637599  0.84537865  0.78849228    -0.83000
C867        C  0.59027334  0.84841220  0.82408513     0.97500
O868        O  0.60289707  0.82416972  0.82129697    -0.83100
O869        O  0.60882460  0.75712395  0.79615838    -0.85700
C870        C  0.58381486  0.72692257  0.82515557     1.02000
O871        O  0.54711781  0.70991117  0.81730978    -0.78500
O872        O  0.47859489  0.70625870  0.79188575    -0.78700
C873        C  0.47718803  0.73030011  0.82603211     1.01900
O874        O  0.47776913  0.75100630  0.70807204    -0.86000
O875        O  0.54905803  0.82172980  0.67864963    -0.83000
C876        C  0.58601417  0.84725524  0.67376103     0.97500
O877        O  0.60996116  0.84618192  0.70667239    -0.83100
O878        O  0.60956676  0.77489971  0.68430704    -0.85700
C879        C  0.59564943  0.73671201  0.67729706     1.02000
O880        O  0.56606514  0.70968512  0.70473311    -0.78500
O881        O  0.49921417  0.71202707  0.67800785    -0.78700
C882        C  0.47573600  0.72493113  0.67451351     1.02100
Cr883      Cr  0.52511872  0.79472254  0.74881610     1.93700
Cr884      Cr  0.60380042  0.79844344  0.75197727     1.93200
Cr885      Cr  0.52482099  0.71376781  0.74778673     1.39100
O886        O  0.55136735  0.76878075  0.74902326    -1.23700
C887        C  0.66302716  0.66472336  0.96661102    -0.03100
C888        C  0.33280189  0.99877358  0.53211995    -0.03100
C889        C  0.58390443  0.90238423  0.87710462    -0.02500
C890        C  0.60395189  0.88108660  0.86754622     0.07200
C891        C  0.63638502  0.89081164  0.90117409    -0.02600
C892        C  0.64804030  0.92034942  0.94302339    -0.02600
C893        C  0.63496887  0.94984366  0.94520259     0.07300
C894        C  0.59818029  0.93500879  0.91548552    -0.02800
Br895      Br  0.55678132  0.94477290  0.93763409    -0.01300
Br896      Br  0.53569847  0.88758402  0.83763642    -0.01400
Br897      Br  0.32688787  0.89828101  0.00489912    -0.01400
Br898      Br  0.33493293  0.86607396  0.89000061    -0.01400
C899        C  0.37614649  0.66235601  0.88740821    -0.02500
C900        C  0.37225815  0.68411001  0.93302793     0.07200
C901        C  0.40859954  0.72506652  0.93944450    -0.02600
C902        C  0.44471946  0.73745288  0.91076786    -0.02600
C903        C  0.44582491  0.71277235  0.86983590     0.07300
C904        C  0.41302456  0.67256060  0.86580790    -0.02800
Br905      Br  0.41922531  0.96133168  0.84127951    -0.01300
Br906      Br  0.33873119  0.97106485  0.82971608    -0.01400
Br907      Br  0.49470565  0.78707780  0.93119397    -0.01400
Br908      Br  0.41184669  0.77433287  0.96442634    -0.01400
C909        C  0.59708314  0.71522573  0.92075445    -0.02500
C910        C  0.59865696  0.70974577  0.86551655     0.07200
C911        C  0.61979960  0.69237282  0.84796619    -0.02600
C912        C  0.64994870  0.69653054  0.88088509    -0.02600
C913        C  0.64421592  0.69033056  0.93851113     0.07300
C914        C  0.61402703  0.69935888  0.95726554    -0.02800
Br915      Br  0.58836458  0.02331492  0.02627187    -0.01300
Br916      Br  0.56942433  0.74218399  0.94468151    -0.01400
Br917      Br  0.36496306  0.74130023  0.84868644    -0.01400
Br918      Br  0.61639383  0.67567413  0.77441013    -0.01400
C919        C  0.58529407  0.90494123  0.62484580    -0.02500
C920        C  0.60147214  0.88023797  0.63115566     0.07200
C921        C  0.63272607  0.88747769  0.59728119    -0.02600
C922        C  0.65264476  0.92370769  0.56425549    -0.02600
C923        C  0.63730114  0.95108693  0.55544132     0.07300
C924        C  0.59908258  0.93557449  0.58356354    -0.02800
Br925      Br  0.55374193  0.93709873  0.55957940    -0.01300
Br926      Br  0.54532197  0.89889774  0.67641789    -0.01400
Br927      Br  0.37039766  0.93440590  0.54190584    -0.01400
Br928      Br  0.64857111  0.84687838  0.59761520    -0.01400
C929        C  0.40448440  0.67938082  0.65344762    -0.02500
C930        C  0.44270309  0.70663594  0.63513535     0.07200
C931        C  0.44824748  0.71706224  0.58076145    -0.02600
C932        C  0.41522774  0.69843128  0.54498227    -0.02600
C933        C  0.37417019  0.67945752  0.56476486     0.07300
C934        C  0.37144443  0.67131255  0.62293911    -0.02800
Br935      Br  0.32584959  0.65367500  0.66949770    -0.01300
Br936      Br  0.39790698  0.65051213  0.71979449    -0.01400
Br937      Br  0.43358533  0.69061265  0.47752588    -0.01400
Br938      Br  0.50230681  0.75494521  0.55565695    -0.01400
C939        C  0.61344310  0.69168408  0.55097424    -0.02500
C940        C  0.65159343  0.69561142  0.55941570     0.07200
C941        C  0.67419078  0.72728822  0.60038042    -0.02600
C942        C  0.65541487  0.73857278  0.63977088    -0.02600
C943        C  0.61491322  0.72367215  0.63703836     0.07300
C944        C  0.59433995  0.70148482  0.59174254    -0.02800
Br945      Br  0.53980616  0.68750938  0.58399971    -0.01300
Br946      Br  0.58824528  0.01952989  0.48289686    -0.01400
Br947      Br  0.35182304  0.77427353  0.69980327    -0.01400
Br948      Br  0.39782388  0.76418333  0.60284067    -0.01400
C949        C  0.40754305  0.99599042  0.35398116    -0.02500
C950        C  0.40572146  0.95986240  0.37121228     0.07200
C951        C  0.37799711  0.93594198  0.41163489    -0.02600
C952        C  0.34774683  0.94380256  0.42518685    -0.02600
C953        C  0.35662582  0.98559609  0.42312052     0.07300
C954        C  0.38027330  0.00613908  0.37474095    -0.02800
Br955      Br  0.36583209  0.69792023  0.31892003    -0.01300
Br956      Br  0.44557194  0.69620552  0.29812110    -0.01400
Br957      Br  0.64044767  0.90631580  0.37591398    -0.01400
Br958      Br  0.37394555  0.88541882  0.43445146    -0.01400
C959        C  0.55258263  0.92359114  0.41735699    -0.02500
C960        C  0.55614802  0.93157109  0.36209641     0.07200
C961        C  0.59431350  0.95535418  0.34200722    -0.02600
C962        C  0.62190153  0.98651346  0.37550329    -0.02600
C963        C  0.62444329  0.97761890  0.43128625     0.07300
C964        C  0.58826574  0.93808489  0.44733489    -0.02800
Br965      Br  0.58462484  0.88863538  0.47666907    -0.01300
Br966      Br  0.50056097  0.88612709  0.44701966    -0.01400
Br967      Br  0.61350689  0.69604348  0.35280672    -0.01400
Br968      Br  0.60420970  0.95382267  0.26729764    -0.01400
C969        C  0.34144102  0.74540033  0.44212698    -0.02500
C970        C  0.35890494  0.72089876  0.44971850     0.07200
C971        C  0.40036198  0.74502589  0.43590748    -0.02600
C972        C  0.41309657  0.77111066  0.39032647    -0.02600
C973        C  0.38899725  0.78515229  0.36972019     0.07300
C974        C  0.35300943  0.77264142  0.39729299    -0.02800
Br975      Br  0.31882711  0.79316882  0.37746791    -0.01300
Br976      Br  0.67618283  0.77964811  0.50035298    -0.01400
Br977      Br  0.46534852  0.78912396  0.36138699    -0.01400
Br978      Br  0.43792815  0.78117958  0.48795167    -0.01400
C979        C  0.34041105  0.95513534  0.12011244    -0.02500
C980        C  0.35573765  0.97623580  0.06812358     0.07200
C981        C  0.39284689  0.97790496  0.05522351    -0.02600
C982        C  0.41381385  0.96844532  0.09393015    -0.02600
C983        C  0.39986656  0.95754823  0.14650182     0.07300
C984        C  0.36491794  0.95480302  0.16037862    -0.02800
Br985      Br  0.34706244  0.94168426  0.23456328    -0.01300
Br986      Br  0.62152490  0.90768551  0.13533708    -0.01400
Br987      Br  0.46300521  0.97071627  0.07716261    -0.01400
Br988      Br  0.41493149  0.98204801  0.98551838    -0.01400
C989        C  0.59140405  0.99155710  0.14864837    -0.02500
C990        C  0.55553469  0.95616290  0.13591759     0.07200
C991        C  0.55322991  0.93371568  0.09036799    -0.02600
C992        C  0.58797741  0.94388992  0.05994709    -0.02600
C993        C  0.62695984  0.98145363  0.07171127     0.07300
C994        C  0.62662472  0.99967420  0.12335542    -0.02800
Br995      Br  0.66940096  0.68956432  0.17489306    -0.01300
Br996      Br  0.59237638  0.02804705  0.20408343    -0.01400
Br997      Br  0.57712181  0.89294024  0.02569531    -0.01400
Br998      Br  0.50043123  0.88845922  0.07057930    -0.01400
C999        C  0.35487735  0.76929013  0.10872638    -0.02500
C1000       C  0.39030714  0.78289331  0.13641553     0.07200
C1001       C  0.41239369  0.76463843  0.12398345    -0.02600
C1002       C  0.40052686  0.73467874  0.08277319    -0.02600
C1003       C  0.36252368  0.71715649  0.05569571     0.07300
C1004       C  0.34531298  0.74302648  0.06358691    -0.02800
Br1005     Br  0.67359740  0.77642390  0.00805721    -0.01300
Br1006     Br  0.65402668  0.78990547  0.12828384    -0.01400
Br1007     Br  0.44618252  0.73490219  0.05529891    -0.01400
Br1008     Br  0.45454661  0.77336675  0.17230421    -0.01400
O1009       O  0.77649261  0.17647779  0.17712650    -0.86000
O1010       O  0.85063364  0.23978413  0.20395633    -0.83000
C1011       C  0.85685768  0.27124623  0.17719487     0.97500
O1012       O  0.83825518  0.28881946  0.18811142    -0.83100
O1013       O  0.77588332  0.29546422  0.21706761    -0.85700
C1014       C  0.74877115  0.27252959  0.18415705     1.02000
O1015       O  0.73115110  0.23335577  0.18725962    -0.78500
O1016       O  0.71759220  0.15433001  0.20979986    -0.78700
C1017       C  0.73968580  0.15103662  0.17577113     1.01900
O1018       O  0.75909940  0.14878951  0.28820565    -0.86000
O1019       O  0.83083241  0.21620592  0.31618846    -0.83000
C1020       C  0.85603047  0.25369829  0.32543800     0.97500
O1021       O  0.85564589  0.28246832  0.29953949    -0.83100
O1022       O  0.78950601  0.28528459  0.32944793    -0.85700
C1023       C  0.75326070  0.27337060  0.33332115     1.02000
O1024       O  0.72853980  0.24721810  0.30042538    -0.78500
O1025       O  0.72640704  0.17531675  0.32209194    -0.78700
C1026       C  0.73661892  0.14904363  0.32452903     1.01900
Cr1027     Cr  0.80271615  0.19774192  0.24679163     1.93700
Cr1028     Cr  0.81252948  0.28368004  0.25849158     1.93200
Cr1029     Cr  0.72972537  0.20439022  0.25462512     1.39100
O1030       O  0.78188640  0.22885064  0.25364510    -1.23700
C1031       C  0.66901583  0.33411663  0.03792182    -0.03100
C1032       C  0.66794282  0.33672034  0.46079175    -0.03100
O1033       O  0.83294464  0.10251384  0.81943498    -0.86000
O1034       O  0.89970922  0.17871180  0.78849251    -0.83000
C1035       C  0.92360667  0.18174572  0.82408584     0.97500
O1036       O  0.93623025  0.15750275  0.82129712    -0.83100
O1037       O  0.94215761  0.09045708  0.79615832    -0.85700
C1038       C  0.91714808  0.06025618  0.82515501     1.02000
O1039       O  0.88045094  0.04324446  0.81730994    -0.78500
O1040       O  0.81192798  0.03959182  0.79188553    -0.78700
C1041       C  0.81052130  0.06363404  0.82603298     1.01900
O1042       O  0.81110219  0.08433971  0.70807228    -0.86000
O1043       O  0.88239110  0.15506326  0.67864997    -0.83000
C1044       C  0.91934778  0.18058861  0.67376203     0.97500
O1045       O  0.94329415  0.17951526  0.70667251    -0.83100
O1046       O  0.94289971  0.10823274  0.68430689    -0.85700
C1047       C  0.92898343  0.07004673  0.67729668     1.02000
O1048       O  0.89939810  0.04301822  0.70473318    -0.78500
O1049       O  0.83254729  0.04536053  0.67800790    -0.78700
C1050       C  0.80906934  0.05826451  0.67451349     1.02100
Cr1051     Cr  0.85845195  0.12805590  0.74881640     1.93700
Cr1052     Cr  0.93713359  0.13177676  0.75197734     1.93200
Cr1053     Cr  0.85815419  0.04710119  0.74778677     1.39100
O1054       O  0.88470053  0.10211408  0.74902334    -1.23700
C1055       C  0.99636042  0.99805662  0.96661120    -0.03100
C1056       C  0.66613529  0.33210685  0.53211987    -0.03100
C1057       C  0.91723768  0.23571757  0.87710496    -0.02500
C1058       C  0.93728501  0.21441955  0.86754620     0.07200
C1059       C  0.96971829  0.22414497  0.90117447    -0.02600
C1060       C  0.98137360  0.25368261  0.94302339    -0.02600
C1061       C  0.96830214  0.28317694  0.94520274     0.07300
C1062       C  0.93151337  0.26834175  0.91548583    -0.02800
Br1063     Br  0.89011450  0.27810582  0.93763445    -0.01300
Br1064     Br  0.86903169  0.22091710  0.83763655    -0.01400
Br1065     Br  0.66022162  0.23161460  0.00489903    -0.01400
Br1066     Br  0.66826614  0.19940698  0.89000068    -0.01400
C1067       C  0.70947972  0.99568940  0.88740822    -0.02500
C1068       C  0.70559143  0.01744344  0.93302817     0.07200
C1069       C  0.74193284  0.05839980  0.93944462    -0.02600
C1070       C  0.77805278  0.07078622  0.91076840    -0.02600
C1071       C  0.77915807  0.04610537  0.86983569     0.07300
C1072       C  0.74635775  0.00589406  0.86580824    -0.02800
Br1073     Br  0.75255865  0.29466494  0.84127914    -0.01300
Br1074     Br  0.67206438  0.30439785  0.82971605    -0.01400
Br1075     Br  0.82803901  0.12041075  0.93119474    -0.01400
Br1076     Br  0.74518010  0.10766614  0.96442668    -0.01400
C1077       C  0.93041631  0.04855922  0.92075434    -0.02500
C1078       C  0.93199015  0.04307902  0.86551699     0.07200
C1079       C  0.95313268  0.02570619  0.84796622    -0.02600
C1080       C  0.98328188  0.02986378  0.88088541    -0.02600
C1081       C  0.97754906  0.02366393  0.93851122     0.07300
C1082       C  0.94736048  0.03269248  0.95726585    -0.02800
Br1083     Br  0.92169775  0.35664803  0.02627181    -0.01300
Br1084     Br  0.90275743  0.07551730  0.94468177    -0.01400
Br1085     Br  0.69829610  0.07463384  0.84868689    -0.01400
Br1086     Br  0.94972675  0.00900714  0.77441052    -0.01400
C1087       C  0.91862737  0.23827455  0.62484596    -0.02500
C1088       C  0.93480542  0.21357159  0.63115565     0.07200
C1089       C  0.96605933  0.22081097  0.59728130    -0.02600
C1090       C  0.98597800  0.25704098  0.56425532    -0.02600
C1091       C  0.97063438  0.28442017  0.55544123     0.07300
C1092       C  0.93241592  0.26890786  0.58356351    -0.02800
Br1093     Br  0.88707499  0.27043140  0.55957902    -0.01300
Br1094     Br  0.87865559  0.23223164  0.67641833    -0.01400
Br1095     Br  0.70373064  0.26773889  0.54190544    -0.01400
Br1096     Br  0.98190415  0.18021160  0.59761525    -0.01400
C1097       C  0.73781772  0.01271436  0.65344772    -0.02500
C1098       C  0.77603634  0.03996949  0.63513546     0.07200
C1099       C  0.78158072  0.05039598  0.58076157    -0.02600
C1100       C  0.74856099  0.03176497  0.54498249    -0.02600
C1101       C  0.70750342  0.01279114  0.56476502     0.07300
C1102       C  0.70477772  0.00464595  0.62293926    -0.02800
Br1103     Br  0.65918281  0.98700833  0.66949772    -0.01300
Br1104     Br  0.73124029  0.98384552  0.71979444    -0.01400
Br1105     Br  0.76691858  0.02394620  0.47752613    -0.01400
Br1106     Br  0.83563996  0.08827913  0.55565699    -0.01400
C1107       C  0.94677651  0.02501781  0.55097398    -0.02500
C1108       C  0.98492685  0.02894506  0.55941581     0.07200
C1109       C  0.00752405  0.06062177  0.60038052    -0.02600
C1110       C  0.98874830  0.07190634  0.63977121    -0.02600
C1111       C  0.94824625  0.05700546  0.63703806     0.07300
C1112       C  0.92767356  0.03481881  0.59174229    -0.02800
Br1113     Br  0.87313972  0.02084363  0.58399894    -0.01300
Br1114     Br  0.92157842  0.35286292  0.48289720    -0.01400
Br1115     Br  0.68515613  0.10760680  0.69980362    -0.01400
Br1116     Br  0.73115715  0.09751694  0.60284073    -0.01400
C1117       C  0.74087641  0.32932369  0.35398065    -0.02500
C1118       C  0.73905481  0.29319577  0.37121207     0.07200
C1119       C  0.71133051  0.26927529  0.41163447    -0.02600
C1120       C  0.68108019  0.27713584  0.42518650    -0.02600
C1121       C  0.68995920  0.31892937  0.42312029     0.07300
C1122       C  0.71360669  0.33947239  0.37474067    -0.02800
Br1123     Br  0.69916565  0.03125345  0.31892015    -0.01300
Br1124     Br  0.77890574  0.02953882  0.29812190    -0.01400
Br1125     Br  0.97378079  0.23964912  0.37591353    -0.01400
Br1126     Br  0.70727890  0.21875211  0.43445106    -0.01400
C1127       C  0.88591620  0.25692427  0.41735670    -0.02500
C1128       C  0.88948135  0.26490430  0.36209636     0.07200
C1129       C  0.92764708  0.28868785  0.34200715    -0.02600
C1130       C  0.95523477  0.31984709  0.37550345    -0.02600
C1131       C  0.95777666  0.31095233  0.43128626     0.07300
C1132       C  0.92159920  0.27141803  0.44733464    -0.02800
Br1133     Br  0.91795841  0.22196865  0.47666902    -0.01300
Br1134     Br  0.83389451  0.21945981  0.44701917    -0.01400
Br1135     Br  0.94684074  0.02937681  0.35280595    -0.01400
Br1136     Br  0.93754346  0.28715632  0.26729767    -0.01400
C1137       C  0.67477426  0.07873373  0.44212703    -0.02500
C1138       C  0.69223818  0.05423211  0.44971845     0.07200
C1139       C  0.73369518  0.07835927  0.43590754    -0.02600
C1140       C  0.74642971  0.10444397  0.39032647    -0.02600
C1141       C  0.72233042  0.11848559  0.36972015     0.07300
C1142       C  0.68634260  0.10597477  0.39729302    -0.02800
Br1143     Br  0.65216026  0.12650207  0.37746792    -0.01300
Br1144     Br  0.00951644  0.11298173  0.50035271    -0.01400
Br1145     Br  0.79868170  0.12245725  0.36138698    -0.01400
Br1146     Br  0.77126136  0.11451314  0.48795166    -0.01400
C1147       C  0.67374460  0.28846872  0.12011240    -0.02500
C1148       C  0.68907103  0.30956915  0.06812373     0.07200
C1149       C  0.72618035  0.31123859  0.05522330    -0.02600
C1150       C  0.74714710  0.30177836  0.09392999    -0.02600
C1151       C  0.73320014  0.29088168  0.14650138     0.07300
C1152       C  0.69825166  0.28813646  0.16037879    -0.02800
Br1153     Br  0.68039663  0.27501844  0.23456342    -0.01300
Br1154     Br  0.95485834  0.24101948  0.13533815    -0.01400
Br1155     Br  0.79633826  0.30404896  0.07716218    -0.01400
Br1156     Br  0.74826516  0.31538191  0.98551826    -0.01400
C1157       C  0.92473744  0.32489055  0.14864828    -0.02500
C1158       C  0.88886820  0.28949621  0.13591753     0.07200
C1159       C  0.88656343  0.26704909  0.09036800    -0.02600
C1160       C  0.92131105  0.27722335  0.05994719    -0.02600
C1161       C  0.96029332  0.31478717  0.07171127     0.07300
C1162       C  0.95995820  0.33300767  0.12335530    -0.02800
Br1163     Br  0.00273389  0.02289757  0.17489342    -0.01300
Br1164     Br  0.92570968  0.36138035  0.20408336    -0.01400
Br1165     Br  0.91045573  0.22627357  0.02569593    -0.01400
Br1166     Br  0.83376495  0.22179247  0.07057894    -0.01400
C1167       C  0.68821079  0.10262339  0.10872674    -0.02500
C1168       C  0.72364050  0.11622652  0.13641560     0.07200
C1169       C  0.74572702  0.09797152  0.12398392    -0.02600
C1170       C  0.73386018  0.06801188  0.08277352    -0.02600
C1171       C  0.69585702  0.05048966  0.05569619     0.07300
C1172       C  0.67864636  0.07635970  0.06358726    -0.02800
Br1173     Br  0.00693080  0.10975723  0.00805757    -0.01300
Br1174     Br  0.98736024  0.12323904  0.12828390    -0.01400
Br1175     Br  0.77951573  0.06823520  0.05529930    -0.01400
Br1176     Br  0.78787990  0.10669999  0.17230453    -0.01400
O1177       O  0.77649258  0.50981090  0.17712653    -0.86000
O1178       O  0.85063368  0.57311727  0.20395654    -0.83000
C1179       C  0.85685760  0.60457955  0.17719533     0.97500
O1180       O  0.83825537  0.62215269  0.18811146    -0.83100
O1181       O  0.77588353  0.62879768  0.21706754    -0.85700
C1182       C  0.74877123  0.60586320  0.18415684     1.02000
O1183       O  0.73115125  0.56668918  0.18725967    -0.78500
O1184       O  0.71759217  0.48766343  0.20979979    -0.78700
C1185       C  0.73968608  0.48437003  0.17577066     1.01900
O1186       O  0.75909911  0.48212269  0.28820566    -0.86000
O1187       O  0.83083241  0.54953922  0.31618859    -0.83000
C1188       C  0.85603009  0.58703115  0.32543781     0.97500
O1189       O  0.85564594  0.61580163  0.29953966    -0.83100
O1190       O  0.78950621  0.61861806  0.32944776    -0.85700
C1191       C  0.75326061  0.60670413  0.33332115     1.02000
O1192       O  0.72853990  0.58055150  0.30042527    -0.78500
O1193       O  0.72640695  0.50865005  0.32209200    -0.78700
C1194       C  0.73661912  0.48237689  0.32452863     1.01900
Cr1195     Cr  0.80271608  0.53107514  0.24679175     1.93700
Cr1196     Cr  0.81252959  0.61701340  0.25849156     1.93200
Cr1197     Cr  0.72972540  0.53772361  0.25462501     1.39100
O1198       O  0.78188643  0.56218398  0.25364510    -1.23700
C1199       C  0.66901594  0.66745000  0.03792185    -0.03100
C1200       C  0.66794286  0.67005372  0.46079188    -0.03100
O1201       O  0.83294470  0.43584720  0.81943467    -0.86000
O1202       O  0.89970925  0.51204511  0.78849211    -0.83000
C1203       C  0.92360675  0.51507887  0.82408548     0.97500
O1204       O  0.93623032  0.49083616  0.82129703    -0.83100
O1205       O  0.94215758  0.42379036  0.79615820    -0.85700
C1206       C  0.91714801  0.39358911  0.82515549     1.02000
O1207       O  0.88045081  0.37657770  0.81730966    -0.78500
O1208       O  0.81192790  0.37292521  0.79188531    -0.78700
C1209       C  0.81052156  0.39696740  0.82603202     1.01900
O1210       O  0.81110244  0.41767310  0.70807202    -0.86000
O1211       O  0.88239139  0.48839656  0.67864968    -0.83000
C1212       C  0.91934758  0.51392185  0.67376129     0.97500
O1213       O  0.94329448  0.51284859  0.70667261    -0.83100
O1214       O  0.94289984  0.44156608  0.68430684    -0.85700
C1215       C  0.92898296  0.40337914  0.67729699     1.02000
O1216       O  0.89939827  0.37635153  0.70473302    -0.78500
O1217       O  0.83254732  0.37869383  0.67800750    -0.78700
C1218       C  0.80906978  0.39159772  0.67451313     1.02100
Cr1219     Cr  0.85845203  0.46138921  0.74881605     1.93700
Cr1220     Cr  0.93713371  0.46510999  0.75197727     1.93200
Cr1221     Cr  0.85815420  0.38043445  0.74778659     1.39100
O1222       O  0.88470063  0.43544739  0.74902309    -1.23700
C1223       C  0.99636041  0.33138997  0.96661104    -0.03100
C1224       C  0.66613544  0.66544018  0.53211974    -0.03100
C1225       C  0.91723783  0.56905094  0.87710451    -0.02500
C1226       C  0.93728503  0.54775296  0.86754602     0.07200
C1227       C  0.96971834  0.55747819  0.90117434    -0.02600
C1228       C  0.98137374  0.58701608  0.94302324    -0.02600
C1229       C  0.96830222  0.61651025  0.94520260     0.07300
C1230       C  0.93151351  0.60167523  0.91548542    -0.02800
Br1231     Br  0.89011458  0.61143928  0.93763409    -0.01300
Br1232     Br  0.86903187  0.55425069  0.83763603    -0.01400
Br1233     Br  0.66022163  0.56494794  0.00489901    -0.01400
Br1234     Br  0.66826601  0.53274002  0.89000101    -0.01400
C1235       C  0.70947959  0.32902255  0.88740804    -0.02500
C1236       C  0.70559134  0.35077662  0.93302767     0.07200
C1237       C  0.74193259  0.39173308  0.93944420    -0.02600
C1238       C  0.77805274  0.40411956  0.91076777    -0.02600
C1239       C  0.77915786  0.37943872  0.86983567     0.07300
C1240       C  0.74635787  0.33922731  0.86580782    -0.02800
Br1241     Br  0.75255870  0.62799829  0.84127915    -0.01300
Br1242     Br  0.67206457  0.63773144  0.82971604    -0.01400
Br1243     Br  0.82803878  0.45374442  0.93119393    -0.01400
Br1244     Br  0.74517984  0.44099948  0.96442599    -0.01400
C1245       C  0.93041608  0.38189200  0.92075438    -0.02500
C1246       C  0.93198983  0.37641210  0.86551649     0.07200
C1247       C  0.95313257  0.35903916  0.84796612    -0.02600
C1248       C  0.98328165  0.36319684  0.88088505    -0.02600
C1249       C  0.97754909  0.35699712  0.93851108     0.07300
C1250       C  0.94736026  0.36602553  0.95726561    -0.02800
Br1251     Br  0.92169782  0.68998136  0.02627175    -0.01300
Br1252     Br  0.90275678  0.40884973  0.94468145    -0.01400
Br1253     Br  0.69829592  0.40796662  0.84868611    -0.01400
Br1254     Br  0.94972682  0.34234046  0.77441015    -0.01400
C1255       C  0.91862759  0.57160790  0.62484606    -0.02500
C1256       C  0.93480561  0.54690468  0.63115565     0.07200
C1257       C  0.96605965  0.55414447  0.59728127    -0.02600
C1258       C  0.98597811  0.59037440  0.56425536    -0.02600
C1259       C  0.97063447  0.61775353  0.55544133     0.07300
C1260       C  0.93241595  0.60224113  0.58356376    -0.02800
Br1261     Br  0.88707507  0.60376478  0.55957936    -0.01300
Br1262     Br  0.87865596  0.56556498  0.67641865    -0.01400
Br1263     Br  0.70373094  0.60107229  0.54190510    -0.01400
Br1264     Br  0.98190484  0.51354529  0.59761566    -0.01400
C1265       C  0.73781794  0.34604767  0.65344745    -0.02500
C1266       C  0.77603629  0.37330267  0.63513516     0.07200
C1267       C  0.78158087  0.38372894  0.58076118    -0.02600
C1268       C  0.74856090  0.36509791  0.54498226    -0.02600
C1269       C  0.70750349  0.34612432  0.56476477     0.07300
C1270       C  0.70477774  0.33797917  0.62293913    -0.02800
Br1271     Br  0.65918293  0.32034160  0.66949771    -0.01300
Br1272     Br  0.73124049  0.31717907  0.71979450    -0.01400
Br1273     Br  0.76691846  0.35727925  0.47752589    -0.01400
Br1274     Br  0.83564006  0.42161157  0.55565657    -0.01400
C1275       C  0.94677644  0.35835067  0.55097431    -0.02500
C1276       C  0.98492670  0.36227805  0.55941577     0.07200
C1277       C  0.00752408  0.39395487  0.60038056    -0.02600
C1278       C  0.98874813  0.40523929  0.63977115    -0.02600
C1279       C  0.94824647  0.39033865  0.63703824     0.07300
C1280       C  0.92767320  0.36815130  0.59174267    -0.02800
Br1281     Br  0.87313918  0.35417544  0.58399974    -0.01300
Br1282     Br  0.92157845  0.68619624  0.48289727    -0.01400
Br1283     Br  0.68515609  0.44093984  0.69980355    -0.01400
Br1284     Br  0.73115710  0.43085005  0.60284035    -0.01400
C1285       C  0.74087643  0.66265730  0.35398068    -0.02500
C1286       C  0.73905496  0.62652928  0.37121168     0.07200
C1287       C  0.71133054  0.60260882  0.41163431    -0.02600
C1288       C  0.68108036  0.61046940  0.42518654    -0.02600
C1289       C  0.68995927  0.65226289  0.42312028     0.07300
C1290       C  0.71360669  0.67280590  0.37474055    -0.02800
Br1291     Br  0.69916551  0.36458684  0.31892007    -0.01300
Br1292     Br  0.77890539  0.36287191  0.29812116    -0.01400
Br1293     Br  0.97378110  0.57298249  0.37591355    -0.01400
Br1294     Br  0.70727912  0.55208568  0.43445068    -0.01400
C1295       C  0.88591620  0.59025750  0.41735674    -0.02500
C1296       C  0.88948154  0.59823762  0.36209662     0.07200
C1297       C  0.92764694  0.62202096  0.34200713    -0.02600
C1298       C  0.95523471  0.65318032  0.37550364    -0.02600
C1299       C  0.95777666  0.64428558  0.43128628     0.07300
C1300       C  0.92159937  0.60475128  0.44733483    -0.02800
Br1301     Br  0.91795868  0.55530198  0.47666905    -0.01300
Br1302     Br  0.83389460  0.55279316  0.44701923    -0.01400
Br1303     Br  0.94684065  0.36271038  0.35280633    -0.01400
Br1304     Br  0.93754332  0.62048966  0.26729759    -0.01400
C1305       C  0.67477428  0.41206698  0.44212701    -0.02500
C1306       C  0.69223816  0.38756540  0.44971846     0.07200
C1307       C  0.73369519  0.41169265  0.43590743    -0.02600
C1308       C  0.74642980  0.43777738  0.39032626    -0.02600
C1309       C  0.72233033  0.45181888  0.36972026     0.07300
C1310       C  0.68634276  0.43930820  0.39729298    -0.02800
Br1311     Br  0.65216032  0.45983548  0.37746795    -0.01300
Br1312     Br  0.00951610  0.44631476  0.50035301    -0.01400
Br1313     Br  0.79868180  0.45579085  0.36138696    -0.01400
Br1314     Br  0.77126155  0.44784622  0.48795142    -0.01400
C1315       C  0.67374461  0.62180196  0.12011223    -0.02500
C1316       C  0.68907109  0.64290255  0.06812349     0.07200
C1317       C  0.72618050  0.64457199  0.05522329    -0.02600
C1318       C  0.74714731  0.63511206  0.09392987    -0.02600
C1319       C  0.73320018  0.62421492  0.14650147     0.07300
C1320       C  0.69825153  0.62146966  0.16037844    -0.02800
Br1321     Br  0.68039630  0.60835147  0.23456302    -0.01300
Br1322     Br  0.95485858  0.57435221  0.13533698    -0.01400
Br1323     Br  0.79633863  0.63738291  0.07716224    -0.01400
Br1324     Br  0.74826511  0.64871499  0.98551820    -0.01400
C1325       C  0.92473754  0.65822370  0.14864851    -0.02500
C1326       C  0.88886844  0.62282953  0.13591750     0.07200
C1327       C  0.88656343  0.60038234  0.09036818    -0.02600
C1328       C  0.92131110  0.61055655  0.05994716    -0.02600
C1329       C  0.96029328  0.64812031  0.07171125     0.07300
C1330       C  0.95995837  0.66634091  0.12335519    -0.02800
Br1331     Br  0.00273411  0.35623123  0.17489307    -0.01300
Br1332     Br  0.92570998  0.69471368  0.20408332    -0.01400
Br1333     Br  0.91045545  0.55960686  0.02569528    -0.01400
Br1334     Br  0.83376488  0.55512587  0.07057931    -0.01400
C1335       C  0.68821085  0.43595685  0.10872630    -0.02500
C1336       C  0.72364035  0.44955989  0.13641556     0.07200
C1337       C  0.74572704  0.43130490  0.12398370    -0.02600
C1338       C  0.73386032  0.40134544  0.08277319    -0.02600
C1339       C  0.69585711  0.38382309  0.05569580     0.07300
C1340       C  0.67864639  0.40969305  0.06358696    -0.02800
Br1341     Br  0.00693060  0.44309051  0.00805712    -0.01300
Br1342     Br  0.98736031  0.45657244  0.12828356    -0.01400
Br1343     Br  0.77951590  0.40156886  0.05529891    -0.01400
Br1344     Br  0.78787977  0.44003306  0.17230449    -0.01400
O1345       O  0.77649246  0.84314438  0.17712652    -0.86000
O1346       O  0.85063343  0.90645065  0.20395660    -0.83000
C1347       C  0.85685747  0.93791299  0.17719509     0.97500
O1348       O  0.83825496  0.95548597  0.18811159    -0.83100
O1349       O  0.77588320  0.96213092  0.21706791    -0.85700
C1350       C  0.74877099  0.93919656  0.18415705     1.02000
O1351       O  0.73115097  0.90002243  0.18725984    -0.78500
O1352       O  0.71759202  0.82099675  0.20979982    -0.78700
C1353       C  0.73968583  0.81770339  0.17577080     1.01900
O1354       O  0.75909920  0.81545596  0.28820550    -0.86000
O1355       O  0.83083232  0.88287261  0.31618852    -0.83000
C1356       C  0.85602992  0.92036398  0.32543834     0.97500
O1357       O  0.85564573  0.94913501  0.29953949    -0.83100
O1358       O  0.78950606  0.95195116  0.32944808    -0.85700
C1359       C  0.75326005  0.94003692  0.33332118     1.02000
O1360       O  0.72853979  0.91388481  0.30042567    -0.78500
O1361       O  0.72640692  0.84198323  0.32209193    -0.78700
C1362       C  0.73661875  0.81571033  0.32452910     1.01900
Cr1363     Cr  0.80271594  0.86440845  0.24679171     1.93700
Cr1364     Cr  0.81252932  0.95034664  0.25849180     1.93200
Cr1365     Cr  0.72972520  0.87105686  0.25462517     1.39100
O1366       O  0.78188624  0.89551726  0.25364504    -1.23700
C1367       C  0.66901575  0.00078328  0.03792207    -0.03100
C1368       C  0.66794282  0.00338707  0.46079191    -0.03100
O1369       O  0.83294458  0.76918043  0.81943471    -0.86000
O1370       O  0.89970940  0.84537849  0.78849229    -0.83000
C1371       C  0.92360607  0.84841255  0.82408496     0.97500
O1372       O  0.93623051  0.82416957  0.82129700    -0.83100
O1373       O  0.94215799  0.75712408  0.79615823    -0.85700
C1374       C  0.91714757  0.72692232  0.82515557     1.02000
O1375       O  0.88045135  0.70991124  0.81730983    -0.78500
O1376       O  0.81192824  0.70625842  0.79188551    -0.78700
C1377       C  0.81052170  0.73030120  0.82603260     1.01900
O1378       O  0.81110235  0.75100628  0.70807204    -0.86000
O1379       O  0.88239103  0.82172966  0.67864975    -0.83000
C1380       C  0.91934820  0.84725555  0.67376122     0.97500
O1381       O  0.94329425  0.84618191  0.70667234    -0.83100
O1382       O  0.94290006  0.77489977  0.68430698    -0.85700
C1383       C  0.92898280  0.73671199  0.67729697     1.02000
O1384       O  0.89939856  0.70968514  0.70473311    -0.78500
O1385       O  0.83254743  0.71202706  0.67800788    -0.78700
C1386       C  0.80906943  0.72493101  0.67451341     1.02100
Cr1387     Cr  0.85845201  0.79472248  0.74881615     1.93700
Cr1388     Cr  0.93713375  0.79844345  0.75197727     1.93200
Cr1389     Cr  0.85815431  0.71376778  0.74778673     1.39100
O1390       O  0.88470068  0.76878072  0.74902325    -1.23700
C1391       C  0.99636052  0.66472333  0.96661101    -0.03100
C1392       C  0.66613540  0.99877366  0.53211990    -0.03100
C1393       C  0.91723746  0.90238440  0.87710467    -0.02500
C1394       C  0.93728519  0.88108639  0.86754623     0.07200
C1395       C  0.96971806  0.89081177  0.90117411    -0.02600
C1396       C  0.98137358  0.92034940  0.94302332    -0.02600
C1397       C  0.96830203  0.94984373  0.94520267     0.07300
C1398       C  0.93151345  0.93500870  0.91548562    -0.02800
Br1399     Br  0.89011453  0.94477288  0.93763406    -0.01300
Br1400     Br  0.86903158  0.88758378  0.83763653    -0.01400
Br1401     Br  0.66022111  0.89828101  0.00489909    -0.01400
Br1402     Br  0.66826636  0.86607396  0.89000062    -0.01400
C1403       C  0.70947976  0.66235595  0.88740811    -0.02500
C1404       C  0.70559155  0.68411000  0.93302786     0.07200
C1405       C  0.74193290  0.72506643  0.93944439    -0.02600
C1406       C  0.77805297  0.73745302  0.91076790    -0.02600
C1407       C  0.77915804  0.71277184  0.86983551     0.07300
C1408       C  0.74635802  0.67256075  0.86580798    -0.02800
Br1409     Br  0.75255857  0.96133167  0.84127948    -0.01300
Br1410     Br  0.67206460  0.97106484  0.82971609    -0.01400
Br1411     Br  0.82803904  0.78707774  0.93119396    -0.01400
Br1412     Br  0.74518012  0.77433287  0.96442634    -0.01400
C1413       C  0.93041645  0.71522572  0.92075445    -0.02500
C1414       C  0.93199048  0.70974577  0.86551656     0.07200
C1415       C  0.95313277  0.69237280  0.84796616    -0.02600
C1416       C  0.98328205  0.69653056  0.88088509    -0.02600
C1417       C  0.97754928  0.69033058  0.93851112     0.07300
C1418       C  0.94736044  0.69935878  0.95726559    -0.02800
Br1419     Br  0.92169782  0.02331490  0.02627188    -0.01300
Br1420     Br  0.90275777  0.74218402  0.94468148    -0.01400
Br1421     Br  0.69829634  0.74130028  0.84868645    -0.01400
Br1422     Br  0.94972706  0.67567413  0.77441012    -0.01400
C1423       C  0.91862742  0.90494122  0.62484579    -0.02500
C1424       C  0.93480523  0.88023794  0.63115577     0.07200
C1425       C  0.96605950  0.88747778  0.59728107    -0.02600
C1426       C  0.98597802  0.92370769  0.56425546    -0.02600
C1427       C  0.97063445  0.95108698  0.55544133     0.07300
C1428       C  0.93241580  0.93557444  0.58356367    -0.02800
Br1429     Br  0.88707519  0.93709871  0.55957947    -0.01300
Br1430     Br  0.87865539  0.89889778  0.67641825    -0.01400
Br1431     Br  0.70373112  0.93440593  0.54190585    -0.01400
Br1432     Br  0.98190434  0.84687839  0.59761516    -0.01400
C1433       C  0.73781776  0.67938088  0.65344767    -0.02500
C1434       C  0.77603641  0.70663592  0.63513533     0.07200
C1435       C  0.78158074  0.71706225  0.58076144    -0.02600
C1436       C  0.74856099  0.69843124  0.54498231    -0.02600
C1437       C  0.70750344  0.67945750  0.56476491     0.07300
C1438       C  0.70477775  0.67131246  0.62293916    -0.02800
Br1439     Br  0.65918287  0.65367501  0.66949774    -0.01300
Br1440     Br  0.73124039  0.65051212  0.71979445    -0.01400
Br1441     Br  0.76691857  0.69061264  0.47752588    -0.01400
Br1442     Br  0.83564004  0.75494522  0.55565696    -0.01400
C1443       C  0.94677653  0.69168412  0.55097425    -0.02500
C1444       C  0.98492687  0.69561144  0.55941574     0.07200
C1445       C  0.00752414  0.72728825  0.60038055    -0.02600
C1446       C  0.98874829  0.73857281  0.63977087    -0.02600
C1447       C  0.94824663  0.72367229  0.63703832     0.07300
C1448       C  0.92767338  0.70148477  0.59174249    -0.02800
Br1449     Br  0.87313954  0.68750937  0.58399967    -0.01300
Br1450     Br  0.92157852  0.01952987  0.48289687    -0.01400
Br1451     Br  0.68515627  0.77427352  0.69980325    -0.01400
Br1452     Br  0.73115719  0.76418335  0.60284062    -0.01400
C1453       C  0.74087654  0.99599042  0.35398111    -0.02500
C1454       C  0.73905491  0.95986241  0.37121231     0.07200
C1455       C  0.71133056  0.93594200  0.41163494    -0.02600
C1456       C  0.68108027  0.94380255  0.42518695    -0.02600
C1457       C  0.68995926  0.98559611  0.42312048     0.07300
C1458       C  0.71360685  0.00613911  0.37474098    -0.02800
Br1459     Br  0.69916534  0.69792025  0.31892001    -0.01300
Br1460     Br  0.77890536  0.69620553  0.29812112    -0.01400
Br1461     Br  0.97378092  0.90631581  0.37591396    -0.01400
Br1462     Br  0.70727900  0.88541883  0.43445146    -0.01400
C1463       C  0.88591605  0.92359111  0.41735713    -0.02500
C1464       C  0.88948135  0.93157098  0.36209635     0.07200
C1465       C  0.92764680  0.95535412  0.34200730    -0.02600
C1466       C  0.95523476  0.98651350  0.37550332    -0.02600
C1467       C  0.95777666  0.97761894  0.43128630     0.07300
C1468       C  0.92159921  0.93808491  0.44733489    -0.02800
Br1469     Br  0.91795828  0.88863539  0.47666909    -0.01300
Br1470     Br  0.83389438  0.88612705  0.44701968    -0.01400
Br1471     Br  0.94684034  0.69604351  0.35280671    -0.01400
Br1472     Br  0.93754297  0.95382269  0.26729760    -0.01400
C1473       C  0.67477429  0.74540031  0.44212704    -0.02500
C1474       C  0.69223816  0.72089875  0.44971860     0.07200
C1475       C  0.73369524  0.74502596  0.43590754    -0.02600
C1476       C  0.74642973  0.77111070  0.39032648    -0.02600
C1477       C  0.72233056  0.78515227  0.36972024     0.07300
C1478       C  0.68634261  0.77264141  0.39729304    -0.02800
Br1479     Br  0.65216035  0.79316880  0.37746794    -0.01300
Br1480     Br  0.00951616  0.77964813  0.50035300    -0.01400
Br1481     Br  0.79868173  0.78912396  0.36138697    -0.01400
Br1482     Br  0.77126157  0.78117956  0.48795166    -0.01400
C1483       C  0.67374434  0.95513525  0.12011242    -0.02500
C1484       C  0.68907094  0.97623578  0.06812359     0.07200
C1485       C  0.72618013  0.97790497  0.05522350    -0.02600
C1486       C  0.74714709  0.96844530  0.09393010    -0.02600
C1487       C  0.73319993  0.95754826  0.14650184     0.07300
C1488       C  0.69825130  0.95480303  0.16037863    -0.02800
Br1489     Br  0.68039596  0.94168452  0.23456331    -0.01300
Br1490     Br  0.95485821  0.90768525  0.13533699    -0.01400
Br1491     Br  0.79633844  0.97071628  0.07716259    -0.01400
Br1492     Br  0.74826472  0.98204799  0.98551841    -0.01400
C1493       C  0.92473734  0.99155712  0.14864840    -0.02500
C1494       C  0.88886803  0.95616282  0.13591756     0.07200
C1495       C  0.88656326  0.93371569  0.09036804    -0.02600
C1496       C  0.92131075  0.94388975  0.05994721    -0.02600
C1497       C  0.96029310  0.98145357  0.07171131     0.07300
C1498       C  0.95995801  0.99967412  0.12335541    -0.02800
Br1499     Br  0.00273425  0.68956431  0.17489304    -0.01300
Br1500     Br  0.92570961  0.02804704  0.20408340    -0.01400
Br1501     Br  0.91045498  0.89294003  0.02569527    -0.01400
Br1502     Br  0.83376464  0.88845922  0.07057934    -0.01400
C1503       C  0.68821066  0.76929008  0.10872638    -0.02500
C1504       C  0.72364030  0.78289324  0.13641547     0.07200
C1505       C  0.74572703  0.76463844  0.12398342    -0.02600
C1506       C  0.73386018  0.73467870  0.08277320    -0.02600
C1507       C  0.69585696  0.71715645  0.05569572     0.07300
C1508       C  0.67864630  0.74302640  0.06358688    -0.02800
Br1509     Br  0.00693071  0.77642388  0.00805722    -0.01300
Br1510     Br  0.98735995  0.78990546  0.12828384    -0.01400
Br1511     Br  0.77951577  0.73490218  0.05529890    -0.01400
Br1512     Br  0.78787985  0.77336674  0.17230423    -0.01400
loop_ 
_geom_bond_atom_site_label_1 
_geom_bond_atom_site_label_2 
_geom_bond_distance 
_geom_bond_site_symmetry_2 
_ccdc_geom_bond_type 
O1          Cr19   1.968       .  S
O1            C9   1.255       .  A
O2          Cr19   2.013       .  S
O2            C3   1.268       .  A
C3            O4   1.255       .  A
C3          C150   1.481       .  S
O4          Cr20   1.976       .  S
O5          Cr20   2.016       .  S
O5            C6   1.268       .  A
C6            O7   1.266       .  A
C6          C143   1.481       .  S
O7          Cr21   1.983       .  S
O8          Cr21   2.031       .  S
O8            C9   1.266       .  A
C9          C160   1.494       .  S
O10         Cr19   2.018       .  S
O10          C18   1.268       .  A
O11         Cr19   1.978       .  S
O11          C12   1.256       .  A
C12          O13   1.271       .  A
C12         C120   1.480       .  S
O13         Cr20   2.015       .  S
O14         Cr20   1.996       .  S
O14          C15   1.260       .  A
C15          O16   1.265       .  A
C15         C110   1.487       .  S
O16         Cr21   2.005       .  S
O17         Cr21   1.969       .  S
O17          C18   1.258       .  A
C18         C133   1.489       .  S
Cr19         O22   1.767       .  S
Cr20         O22   1.774       .  S
Cr21         O22   1.763       .  S
C23         C140   1.685       .  S
C23        C1161   1.646   1_455  S
C23         C331   1.665       .  S
C23        C1223   1.786   1_454  S
C24         C113   1.644       .  S
C24        C1131   1.645   1_455  S
C24         C298   1.659       .  S
C24          C48   1.778   1_455  S
O25         Cr43   1.994       .  S
O25          C33   1.266       .  A
O26         Cr43   2.012       .  S
O26          C27   1.260       .  A
C27          O28   1.258       .  A
C27          C50   1.517       .  S
O28         Cr44   1.991       .  S
O29         Cr44   2.004       .  S
O29          C30   1.266       .  A
C30          O31   1.258       .  A
C30          C70   1.477       .  S
O31         Cr45   1.985       .  S
O32         Cr45   2.015       .  S
O32          C33   1.269       .  A
C33          C63   1.510       .  S
O34         Cr43   2.011       .  S
O34          C42   1.265       .  A
O35         Cr43   1.984       .  S
O35          C36   1.264       .  A
C36          O37   1.273       .  A
C36          C80   1.495       .  S
O37         Cr44   2.029       .  S
O38         Cr44   1.974       .  S
O38          C39   1.260       .  A
C39          O40   1.268       .  A
C39         C103   1.489       .  S
O40         Cr45   2.021       .  S
O41         Cr45   1.998       .  S
O41          C42   1.261       .  A
C42          C90   1.488       .  S
Cr43         O46   1.767       .  S
Cr44         O46   1.767       .  S
Cr45         O46   1.772       .  S
C47          C73   1.658   1_565  S
C47         C389   1.651       .  S
C47         C564   1.659   1_565  S
C47         C863   1.786   1_566  S
C48        C1091   1.648       .  S
C48         C261   1.651   1_655  S
C48        C1276   1.671       .  S
C49          C50   1.418       .  A
C49          C54   1.426       .  A
C49         Br56   1.954       .  S
C50          C51   1.414       .  A
C51          C52   1.419       .  A
C51        Br562   1.948       .  S
C52          C53   1.459       .  A
C52        Br561   1.929   1_556  S
C53         C215   1.651       .  S
C53          C54   1.462       .  A
C54         Br55   1.938       .  S
Br57       C1060   1.929   1_554  S
Br58       C1059   1.948   1_455  S
C59          C60   1.458   1_565  A
C59          C64   1.402   1_565  A
C59        Br402   1.923       .  S
C60        C1055   1.659   1_445  S
C60          C61   1.468       .  A
C61          C62   1.433       .  A
C61         Br68   1.908       .  S
C62          C63   1.400       .  A
C62         Br67   1.951       .  S
C63          C64   1.391       .  A
C64        Br401   1.929   1_545  S
Br65        C232   1.929       .  S
Br66        C227   1.923       .  S
C69          C70   1.395       .  A
C69          C74   1.437       .  A
C69         Br76   1.942       .  S
C70          C71   1.379       .  A
C71          C72   1.391       .  A
C71         Br78   1.918       .  S
C72          C73   1.448       .  A
C72        Br581   1.932       .  S
C73          C74   1.479       .  A
C74        Br411   1.922   1_556  S
Br75        C242   1.922   1_554  S
Br77       C1080   1.932   1_455  S
C79          C80   1.394       .  A
C79          C84   1.420       .  A
C79         Br86   1.948       .  S
C80          C81   1.394       .  A
C81          C82   1.423       .  A
C81         Br88   1.943       .  S
C82          C83   1.469       .  A
C82        Br591   1.920       .  S
C83         C552   1.648       .  S
C83          C84   1.474       .  A
C84         Br85   1.925       .  S
Br87       C1090   1.920   1_455  S
C89          C90   1.381       .  A
C89          C94   1.404       .  A
C89         Br96   1.915   1_545  S
C90          C91   1.390       .  A
C91          C92   1.429       .  A
C91         Br98   1.942       .  S
C92          C93   1.469       .  A
C92         Br97   1.909       .  S
C93         C384   1.651   1_445  S
C93          C94   1.469       .  A
C94         Br95   1.935   1_445  S
C99         C100   1.455       .  A
C99         C104   1.423       .  A
C99        Br442   1.925       .  S
C100        C888   1.671   1_545  S
C100        C101   1.471       .  A
C101        C102   1.422       .  A
C101       Br612   1.930       .  S
C102        C103   1.394       .  A
C102       Br611   1.948       .  S
C103        C104   1.390       .  A
C104       Br105   1.945       .  S
Br106       C267   1.925       .  S
Br107      C1110   1.948   1_455  S
Br108      C1109   1.930       .  S
C109        C110   1.398       .  A
C109        C114   1.419       .  A
C109       Br284   1.939       .  S
C110        C111   1.403       .  A
C111        C112   1.417       .  A
C111       Br118   1.918       .  S
C112        C113   1.430       .  A
C112      Br1125   1.931   1_455  S
C113        C114   1.463       .  A
C114       Br283   1.932       .  S
Br115       C450   1.932       .  S
Br116       C445   1.939   1_545  S
Br117       C616   1.931       .  S
C119        C120   1.396       .  A
C119        C124   1.432       .  A
C119       Br126   1.923       .  S
C120        C121   1.378       .  A
C121        C122   1.392       .  A
C121       Br128   1.903       .  S
C122        C123   1.442       .  A
C122       Br295   1.905       .  S
C123        C528   1.645       .  S
C123        C124   1.477       .  A
C124       Br125   1.941       .  S
Br127       C458   1.905   1_545  S
C129        C130   1.433       .  A
C129        C134   1.416       .  A
C129      Br1144   1.928       .  S
C130        C360   1.659       .  S
C130        C131   1.435       .  A
C131        C132   1.406       .  A
C131       Br138   1.910       .  S
C132        C133   1.413       .  A
C132       Br137   1.938       .  S
C133        C134   1.414       .  A
C134       Br135   1.948   1_455  S
Br136       C633   1.928       .  S
C139        C140   1.466       .  A
C139        C144   1.403       .  A
C139      Br1154   1.929   1_455  S
C140        C141   1.471       .  A
C141        C142   1.437       .  A
C141       Br148   1.904   1_554  S
C142        C143   1.390       .  A
C142       Br147   1.947       .  S
C143        C144   1.374       .  A
C144       Br145   1.938       .  S
Br146       C643   1.929       .  S
C149        C150   1.384       .  A
C149        C154   1.404       .  A
C149       Br156   1.941       .  S
C150        C151   1.392       .  A
C151        C152   1.429       .  A
C151       Br158   1.947       .  S
C152        C153   1.478       .  A
C152       Br157   1.943       .  S
C153        C527   1.646       .  S
C153        C154   1.462       .  A
C154       Br323   1.935       .  S
Br155       C490   1.935   1_545  S
C159        C160   1.400       .  A
C159        C164   1.416       .  A
C159      Br1174   1.946   1_455  S
C160        C161   1.405       .  A
C161        C162   1.417       .  A
C161       Br168   1.945       .  S
C162        C163   1.456       .  A
C162       Br167   1.925       .  S
C163        C359   1.665       .  S
C163        C164   1.472       .  A
C164      Br1173   1.951       .  S
Br165       C668   1.951       .  S
Br166       C663   1.946       .  S
O169       Cr187   1.968       .  S
O169        C177   1.255       .  A
O170       Cr187   2.013       .  S
O170        C171   1.268       .  A
C171        O172   1.255       .  A
C171        C318   1.481       .  S
O172       Cr188   1.976       .  S
O173       Cr188   2.016       .  S
O173        C174   1.268       .  A
C174        O175   1.266       .  A
C174        C311   1.481       .  S
O175       Cr189   1.983       .  S
O176       Cr189   2.031       .  S
O176        C177   1.266       .  A
C177        C328   1.494       .  S
O178       Cr187   2.018       .  S
O178        C186   1.268       .  A
O179       Cr187   1.978       .  S
O179        C180   1.256       .  A
C180        O181   1.271       .  A
C180        C288   1.480       .  S
O181       Cr188   2.015       .  S
O182       Cr188   1.996       .  S
O182        C183   1.260       .  A
C183        O184   1.265       .  A
C183        C278   1.487       .  S
O184       Cr189   2.005       .  S
O185       Cr189   1.969       .  S
O185        C186   1.258       .  A
C186        C301   1.489       .  S
Cr187       O190   1.767       .  S
Cr188       O190   1.774       .  S
Cr189       O190   1.763       .  S
C191        C308   1.685       .  S
C191       C1329   1.646   1_455  S
C191        C499   1.665       .  S
C191       C1391   1.786   1_454  S
C192        C281   1.644       .  S
C192       C1299   1.645   1_455  S
C192        C466   1.659       .  S
C192        C216   1.778   1_455  S
O193       Cr211   1.994       .  S
O193        C201   1.266       .  A
O194       Cr211   2.012       .  S
O194        C195   1.260       .  A
C195        O196   1.258       .  A
C195        C218   1.517       .  S
O196       Cr212   1.991       .  S
O197       Cr212   2.004       .  S
O197        C198   1.266       .  A
C198        O199   1.258       .  A
C198        C238   1.477       .  S
O199       Cr213   1.985       .  S
O200       Cr213   2.015       .  S
O200        C201   1.269       .  A
C201        C231   1.510       .  S
O202       Cr211   2.011       .  S
O202        C210   1.265       .  A
O203       Cr211   1.984       .  S
O203        C204   1.264       .  A
C204        O205   1.273       .  A
C204        C248   1.495       .  S
O205       Cr212   2.029       .  S
O206       Cr212   1.974       .  S
O206        C207   1.260       .  A
C207        O208   1.268       .  A
C207        C271   1.489       .  S
O208       Cr213   2.021       .  S
O209       Cr213   1.998       .  S
O209        C210   1.261       .  A
C210        C258   1.488       .  S
Cr211       O214   1.767       .  S
Cr212       O214   1.767       .  S
Cr213       O214   1.772       .  S
C215        C732   1.659       .  S
C215        C241   1.658       .  S
C215        C527   1.786   1_556  S
C216       C1259   1.648       .  S
C216        C429   1.651   1_655  S
C216       C1444   1.671       .  S
C217        C218   1.418       .  A
C217        C222   1.426       .  A
C217       Br224   1.954       .  S
C218        C219   1.414       .  A
C219        C220   1.419       .  A
C219       Br730   1.948       .  S
C220        C221   1.459       .  A
C220       Br729   1.929   1_556  S
C221        C383   1.651       .  S
C221        C222   1.462       .  A
C222       Br223   1.938       .  S
Br225      C1228   1.929   1_554  S
Br226      C1227   1.948   1_455  S
C227        C228   1.458       .  A
C227        C232   1.402       .  A
C228       C1223   1.659   1_455  S
C228        C229   1.468       .  A
C229        C230   1.433       .  A
C229       Br236   1.908       .  S
C230        C231   1.400       .  A
C230       Br235   1.951       .  S
C231        C232   1.391       .  A
Br233       C400   1.929       .  S
Br234       C395   1.923       .  S
C237        C238   1.395       .  A
C237        C242   1.437       .  A
C237       Br244   1.942       .  S
C238        C239   1.379       .  A
C239        C240   1.391       .  A
C239       Br246   1.918       .  S
C240        C241   1.448       .  A
C240       Br749   1.932       .  S
C241        C242   1.479       .  A
Br243       C410   1.922   1_554  S
Br245      C1248   1.932   1_455  S
C247        C248   1.394       .  A
C247        C252   1.420       .  A
C247       Br254   1.948       .  S
C248        C249   1.394       .  A
C249        C250   1.423       .  A
C249       Br256   1.943       .  S
C250        C251   1.469       .  A
C250       Br759   1.920       .  S
C251        C720   1.648       .  S
C251        C252   1.474       .  A
C252       Br253   1.925       .  S
Br255      C1258   1.920   1_455  S
C257        C258   1.381       .  A
C257        C262   1.404       .  A
C257       Br264   1.915       .  S
C258        C259   1.390       .  A
C259        C260   1.429       .  A
C259       Br266   1.942       .  S
C260        C261   1.469       .  A
C260       Br265   1.909       .  S
C261        C262   1.469       .  A
C262       Br263   1.935   1_455  S
C267        C268   1.455       .  A
C267        C272   1.423       .  A
C268        C552   1.671       .  S
C268        C269   1.471       .  A
C269        C270   1.422       .  A
C269       Br780   1.930       .  S
C270        C271   1.394       .  A
C270       Br779   1.948       .  S
C271        C272   1.390       .  A
C272       Br273   1.945       .  S
Br274       C435   1.925       .  S
Br275      C1278   1.948   1_455  S
Br276      C1277   1.930       .  S
C277        C278   1.398       .  A
C277        C282   1.419       .  A
C277       Br452   1.939       .  S
C278        C279   1.403       .  A
C279        C280   1.417       .  A
C279       Br286   1.918       .  S
C280        C281   1.430       .  A
C280      Br1293   1.931   1_455  S
C281        C282   1.463       .  A
C282       Br451   1.932       .  S
Br285       C784   1.931       .  S
C287        C288   1.396       .  A
C287        C292   1.432       .  A
C287       Br294   1.923       .  S
C288        C289   1.378       .  A
C289        C290   1.392       .  A
C289       Br296   1.903       .  S
C290        C291   1.442       .  A
C290       Br463   1.905       .  S
C291        C696   1.645       .  S
C291        C292   1.477       .  A
C292       Br293   1.941       .  S
C297        C298   1.433       .  A
C297        C302   1.416       .  A
C297      Br1312   1.928       .  S
C298        C299   1.435       .  A
C299        C300   1.406       .  A
C299       Br306   1.910       .  S
C300        C301   1.413       .  A
C300       Br305   1.938       .  S
C301        C302   1.414       .  A
C302       Br303   1.948   1_455  S
Br304       C801   1.928       .  S
C307        C308   1.466       .  A
C307        C312   1.403       .  A
C307      Br1322   1.929   1_455  S
C308        C309   1.471       .  A
C309        C310   1.437       .  A
C309       Br316   1.904   1_554  S
C310        C311   1.390       .  A
C310       Br315   1.947       .  S
C311        C312   1.374       .  A
C312       Br313   1.938       .  S
Br314       C811   1.929       .  S
C317        C318   1.384       .  A
C317        C322   1.404       .  A
C317       Br324   1.941       .  S
C318        C319   1.392       .  A
C319        C320   1.429       .  A
C319       Br326   1.947       .  S
C320        C321   1.478       .  A
C320       Br325   1.943       .  S
C321        C695   1.646       .  S
C321        C322   1.462       .  A
C322       Br491   1.935       .  S
C327        C328   1.400       .  A
C327        C332   1.416       .  A
C327      Br1342   1.946   1_455  S
C328        C329   1.405       .  A
C329        C330   1.417       .  A
C329       Br336   1.945       .  S
C330        C331   1.456       .  A
C330       Br335   1.925       .  S
C331        C332   1.472       .  A
C332      Br1341   1.951       .  S
Br333       C836   1.951       .  S
Br334       C831   1.946       .  S
O337       Cr355   1.968       .  S
O337        C345   1.255       .  A
O338       Cr355   2.013       .  S
O338        C339   1.268       .  A
C339        O340   1.255       .  A
C339        C486   1.481       .  S
O340       Cr356   1.976       .  S
O341       Cr356   2.016       .  S
O341        C342   1.268       .  A
C342        O343   1.266       .  A
C342        C479   1.481       .  S
O343       Cr357   1.983       .  S
O344       Cr357   2.031       .  S
O344        C345   1.266       .  A
C345        C496   1.494       .  S
O346       Cr355   2.018       .  S
O346        C354   1.268       .  A
O347       Cr355   1.978       .  S
O347        C348   1.256       .  A
C348        O349   1.271       .  A
C348        C456   1.480       .  S
O349       Cr356   2.015       .  S
O350       Cr356   1.996       .  S
O350        C351   1.260       .  A
C351        O352   1.265       .  A
C351        C446   1.487       .  S
O352       Cr357   2.005       .  S
O353       Cr357   1.969       .  S
O353        C354   1.258       .  A
C354        C469   1.489       .  S
Cr355       O358   1.767       .  S
Cr356       O358   1.774       .  S
Cr357       O358   1.763       .  S
C359        C476   1.685   1_545  S
C359       C1497   1.646   1_445  S
C359       C1055   1.786   1_444  S
C360        C449   1.644   1_545  S
C360       C1467   1.645   1_445  S
C360        C384   1.778   1_445  S
O361       Cr379   1.994       .  S
O361        C369   1.266       .  A
O362       Cr379   2.012       .  S
O362        C363   1.260       .  A
C363        O364   1.258       .  A
C363        C386   1.517       .  S
O364       Cr380   1.991       .  S
O365       Cr380   2.004       .  S
O365        C366   1.266       .  A
C366        O367   1.258       .  A
C366        C406   1.477       .  S
O367       Cr381   1.985       .  S
O368       Cr381   2.015       .  S
O368        C369   1.269       .  A
C369        C399   1.510       .  S
O370       Cr379   2.011       .  S
O370        C378   1.265       .  A
O371       Cr379   1.984       .  S
O371        C372   1.264       .  A
C372        O373   1.273       .  A
C372        C416   1.495       .  S
O373       Cr380   2.029       .  S
O374       Cr380   1.974       .  S
O374        C375   1.260       .  A
C375        O376   1.268       .  A
C375        C439   1.489       .  S
O376       Cr381   2.021       .  S
O377       Cr381   1.998       .  S
O377        C378   1.261       .  A
C378        C426   1.488       .  S
Cr379       O382   1.767       .  S
Cr380       O382   1.767       .  S
Cr381       O382   1.772       .  S
C383        C900   1.659       .  S
C383        C409   1.658       .  S
C383        C695   1.786   1_556  S
C384       C1427   1.648       .  S
C384       C1108   1.671   1_565  S
C385        C386   1.418       .  A
C385        C390   1.426       .  A
C385       Br392   1.954       .  S
C386        C387   1.414       .  A
C387        C388   1.419       .  A
C387       Br898   1.948       .  S
C388        C389   1.459       .  A
C388       Br897   1.929   1_556  S
C389        C390   1.462       .  A
C390       Br391   1.938       .  S
Br393      C1396   1.929   1_554  S
Br394      C1395   1.948   1_455  S
C395        C396   1.458       .  A
C395        C400   1.402       .  A
C396       C1391   1.659   1_455  S
C396        C397   1.468       .  A
C397        C398   1.433       .  A
C397       Br404   1.908       .  S
C398        C399   1.400       .  A
C398       Br403   1.951       .  S
C399        C400   1.391       .  A
C405        C406   1.395       .  A
C405        C410   1.437       .  A
C405       Br412   1.942       .  S
C406        C407   1.379       .  A
C407        C408   1.391       .  A
C407       Br414   1.918       .  S
C408        C409   1.448       .  A
C408       Br917   1.932       .  S
C409        C410   1.479       .  A
Br413      C1416   1.932   1_455  S
C415        C416   1.394       .  A
C415        C420   1.420       .  A
C415       Br422   1.948       .  S
C416        C417   1.394       .  A
C417        C418   1.423       .  A
C417       Br424   1.943       .  S
C418        C419   1.469       .  A
C418       Br927   1.920       .  S
C419        C888   1.648       .  S
C419        C420   1.474       .  A
C420       Br421   1.925       .  S
Br423      C1426   1.920   1_455  S
C425        C426   1.381       .  A
C425        C430   1.404       .  A
C425       Br432   1.915       .  S
C426        C427   1.390       .  A
C427        C428   1.429       .  A
C427       Br434   1.942       .  S
C428        C429   1.469       .  A
C428       Br433   1.909       .  S
C429        C430   1.469       .  A
C430       Br431   1.935   1_455  S
C435        C436   1.455       .  A
C435        C440   1.423       .  A
C436        C720   1.671       .  S
C436        C437   1.471       .  A
C437        C438   1.422       .  A
C437       Br948   1.930       .  S
C438        C439   1.394       .  A
C438       Br947   1.948       .  S
C439        C440   1.390       .  A
C440       Br441   1.945       .  S
Br443      C1446   1.948   1_455  S
Br444      C1445   1.930       .  S
C445        C446   1.398       .  A
C445        C450   1.419   1_565  A
C446        C447   1.403       .  A
C447        C448   1.417       .  A
C447       Br454   1.918       .  S
C448        C449   1.430       .  A
C448      Br1461   1.931   1_455  S
C449        C450   1.463   1_565  A
Br453       C952   1.931       .  S
C455        C456   1.396       .  A
C455        C460   1.432       .  A
C455       Br462   1.923       .  S
C456        C457   1.378       .  A
C457        C458   1.392       .  A
C457       Br464   1.903       .  S
C458        C459   1.442       .  A
C459        C864   1.645   1_565  S
C459        C460   1.477       .  A
C460       Br461   1.941       .  S
C465        C466   1.433       .  A
C465        C470   1.416       .  A
C465      Br1480   1.928       .  S
C466        C467   1.435       .  A
C467        C468   1.406       .  A
C467       Br474   1.910       .  S
C468        C469   1.413       .  A
C468       Br473   1.938       .  S
C469        C470   1.414       .  A
C470       Br471   1.948   1_455  S
Br472       C969   1.928       .  S
C475        C476   1.466       .  A
C475        C480   1.403       .  A
C475      Br1490   1.929   1_455  S
C476        C477   1.471       .  A
C477        C478   1.437       .  A
C477       Br484   1.904   1_554  S
C478        C479   1.390       .  A
C478       Br483   1.947       .  S
C479        C480   1.374       .  A
C480       Br481   1.938       .  S
Br482       C979   1.929       .  S
C485        C486   1.384       .  A
C485        C490   1.404       .  A
C485       Br492   1.941   1_565  S
C486        C487   1.392       .  A
C487        C488   1.429       .  A
C487       Br494   1.947       .  S
C488        C489   1.478       .  A
C488       Br493   1.943       .  S
C489        C863   1.646   1_565  S
C489        C490   1.462       .  A
C495        C496   1.400       .  A
C495        C500   1.416       .  A
C495      Br1510   1.946   1_455  S
C496        C497   1.405       .  A
C497        C498   1.417       .  A
C497       Br504   1.945       .  S
C498        C499   1.456       .  A
C498       Br503   1.925       .  S
C499        C500   1.472       .  A
C500      Br1509   1.951       .  S
Br501      C1004   1.951       .  S
Br502       C999   1.946       .  S
O505       Cr523   1.968       .  S
O505        C513   1.255       .  A
O506       Cr523   2.013       .  S
O506        C507   1.268       .  A
C507        O508   1.255       .  A
C507        C654   1.481       .  S
O508       Cr524   1.976       .  S
O509       Cr524   2.016       .  S
O509        C510   1.268       .  A
C510        O511   1.266       .  A
C510        C647   1.481       .  S
O511       Cr525   1.983       .  S
O512       Cr525   2.031       .  S
O512        C513   1.266       .  A
C513        C664   1.494       .  S
O514       Cr523   2.018       .  S
O514        C522   1.268       .  A
O515       Cr523   1.978       .  S
O515        C516   1.256       .  A
C516        O517   1.271       .  A
C516        C624   1.480       .  S
O517       Cr524   2.015       .  S
O518       Cr524   1.996       .  S
O518        C519   1.260       .  A
C519        O520   1.265       .  A
C519        C614   1.487       .  S
O520       Cr525   2.005       .  S
O521       Cr525   1.969       .  S
O521        C522   1.258       .  A
C522        C637   1.489       .  S
Cr523       O526   1.767       .  S
Cr524       O526   1.774       .  S
Cr525       O526   1.763       .  S
C527        C644   1.685       .  S
C527        C835   1.665       .  S
C528        C617   1.644       .  S
C528        C802   1.659       .  S
C528        C552   1.778       .  S
O529       Cr547   1.994       .  S
O529        C537   1.266       .  A
O530       Cr547   2.012       .  S
O530        C531   1.260       .  A
C531        O532   1.258       .  A
C531        C554   1.517       .  S
O532       Cr548   1.991       .  S
O533       Cr548   2.004       .  S
O533        C534   1.266       .  A
C534        O535   1.258       .  A
C534        C574   1.477       .  S
O535       Cr549   1.985       .  S
O536       Cr549   2.015       .  S
O536        C537   1.269       .  A
C537        C567   1.510       .  S
O538       Cr547   2.011       .  S
O538        C546   1.265       .  A
O539       Cr547   1.984       .  S
O539        C540   1.264       .  A
C540        O541   1.273       .  A
C540        C584   1.495       .  S
O541       Cr548   2.029       .  S
O542       Cr548   1.974       .  S
O542        C543   1.260       .  A
C543        O544   1.268       .  A
C543        C607   1.489       .  S
O544       Cr549   2.021       .  S
O545       Cr549   1.998       .  S
O545        C546   1.261       .  A
C546        C594   1.488       .  S
Cr547       O550   1.767       .  S
Cr548       O550   1.767       .  S
Cr549       O550   1.772       .  S
C551        C893   1.651       .  S
C551       C1068   1.659   1_565  S
C551        C577   1.658   1_565  S
C551       C1367   1.786   1_566  S
C552        C765   1.651       .  S
C553        C554   1.418       .  A
C553        C558   1.426       .  A
C553       Br560   1.954       .  S
C554        C555   1.414       .  A
C555        C556   1.419       .  A
C555      Br1066   1.948       .  S
C556        C557   1.459       .  A
C556      Br1065   1.929   1_556  S
C557        C719   1.651       .  S
C557        C558   1.462       .  A
C558       Br559   1.938       .  S
C563        C564   1.458   1_565  A
C563        C568   1.402   1_565  A
C563       Br906   1.923       .  S
C564        C565   1.468       .  A
C565        C566   1.433       .  A
C565       Br572   1.908       .  S
C566        C567   1.400       .  A
C566       Br571   1.951       .  S
C567        C568   1.391       .  A
C568       Br905   1.929   1_545  S
Br569       C736   1.929       .  S
Br570       C731   1.923       .  S
C573        C574   1.395       .  A
C573        C578   1.437       .  A
C573       Br580   1.942       .  S
C574        C575   1.379       .  A
C575        C576   1.391       .  A
C575       Br582   1.918       .  S
C576        C577   1.448       .  A
C576      Br1085   1.932       .  S
C577        C578   1.479       .  A
C578       Br915   1.922   1_556  S
Br579       C746   1.922   1_554  S
C583        C584   1.394       .  A
C583        C588   1.420       .  A
C583       Br590   1.948       .  S
C584        C585   1.394       .  A
C585        C586   1.423       .  A
C585       Br592   1.943       .  S
C586        C587   1.469       .  A
C586      Br1095   1.920       .  S
C587       C1056   1.648       .  S
C587        C588   1.474       .  A
C588       Br589   1.925       .  S
C593        C594   1.381       .  A
C593        C598   1.404       .  A
C593       Br600   1.915   1_545  S
C594        C595   1.390       .  A
C595        C596   1.429       .  A
C595       Br602   1.942       .  S
C596        C597   1.469       .  A
C596       Br601   1.909       .  S
C597        C888   1.651   1_545  S
C597        C598   1.469       .  A
C598       Br599   1.935   1_545  S
C603        C604   1.455       .  A
C603        C608   1.423       .  A
C603       Br946   1.925       .  S
C604       C1392   1.671   1_545  S
C604        C605   1.471       .  A
C605        C606   1.422       .  A
C605      Br1116   1.930       .  S
C606        C607   1.394       .  A
C606      Br1115   1.948       .  S
C607        C608   1.390       .  A
C608       Br609   1.945       .  S
Br610       C771   1.925       .  S
C613        C614   1.398       .  A
C613        C618   1.419       .  A
C613       Br788   1.939       .  S
C614        C615   1.403       .  A
C615        C616   1.417       .  A
C615       Br622   1.918       .  S
C616        C617   1.430       .  A
C617        C618   1.463       .  A
C618       Br787   1.932       .  S
Br619       C954   1.932       .  S
Br620       C949   1.939   1_545  S
Br621      C1120   1.931       .  S
C623        C624   1.396       .  A
C623        C628   1.432       .  A
C623       Br630   1.923       .  S
C624        C625   1.378       .  A
C625        C626   1.392       .  A
C625       Br632   1.903       .  S
C626        C627   1.442       .  A
C626       Br799   1.905       .  S
C627       C1032   1.645       .  S
C627        C628   1.477       .  A
C628       Br629   1.941       .  S
Br631       C962   1.905   1_545  S
C633        C634   1.433       .  A
C633        C638   1.416       .  A
C634        C864   1.659       .  S
C634        C635   1.435       .  A
C635        C636   1.406       .  A
C635       Br642   1.910       .  S
C636        C637   1.413       .  A
C636       Br641   1.938       .  S
C637        C638   1.414       .  A
C638       Br639   1.948       .  S
Br640      C1137   1.928       .  S
C643        C644   1.466       .  A
C643        C648   1.403       .  A
C644        C645   1.471       .  A
C645        C646   1.437       .  A
C645       Br652   1.904   1_554  S
C646        C647   1.390       .  A
C646       Br651   1.947       .  S
C647        C648   1.374       .  A
C648       Br649   1.938       .  S
Br650      C1147   1.929       .  S
C653        C654   1.384       .  A
C653        C658   1.404       .  A
C653       Br660   1.941       .  S
C654        C655   1.392       .  A
C655        C656   1.429       .  A
C655       Br662   1.947       .  S
C656        C657   1.478       .  A
C656       Br661   1.943       .  S
C657       C1031   1.646       .  S
C657        C658   1.462       .  A
C658       Br827   1.935       .  S
Br659       C994   1.935   1_545  S
C663        C664   1.400       .  A
C663        C668   1.416       .  A
C664        C665   1.405       .  A
C665        C666   1.417       .  A
C665       Br672   1.945       .  S
C666        C667   1.456       .  A
C666       Br671   1.925       .  S
C667        C863   1.665       .  S
C667        C668   1.472       .  A
Br669      C1172   1.951       .  S
Br670      C1167   1.946       .  S
O673       Cr691   1.968       .  S
O673        C681   1.255       .  A
O674       Cr691   2.013       .  S
O674        C675   1.268       .  A
C675        O676   1.255       .  A
C675        C822   1.481       .  S
O676       Cr692   1.976       .  S
O677       Cr692   2.016       .  S
O677        C678   1.268       .  A
C678        O679   1.266       .  A
C678        C815   1.481       .  S
O679       Cr693   1.983       .  S
O680       Cr693   2.031       .  S
O680        C681   1.266       .  A
C681        C832   1.494       .  S
O682       Cr691   2.018       .  S
O682        C690   1.268       .  A
O683       Cr691   1.978       .  S
O683        C684   1.256       .  A
C684        O685   1.271       .  A
C684        C792   1.480       .  S
O685       Cr692   2.015       .  S
O686       Cr692   1.996       .  S
O686        C687   1.260       .  A
C687        O688   1.265       .  A
C687        C782   1.487       .  S
O688       Cr693   2.005       .  S
O689       Cr693   1.969       .  S
O689        C690   1.258       .  A
C690        C805   1.489       .  S
Cr691       O694   1.767       .  S
Cr692       O694   1.774       .  S
Cr693       O694   1.763       .  S
C695        C812   1.685       .  S
C695       C1003   1.665       .  S
C696        C785   1.644       .  S
C696        C970   1.659       .  S
C696        C720   1.778       .  S
O697       Cr715   1.994       .  S
O697        C705   1.266       .  A
O698       Cr715   2.012       .  S
O698        C699   1.260       .  A
C699        O700   1.258       .  A
C699        C722   1.517       .  S
O700       Cr716   1.991       .  S
O701       Cr716   2.004       .  S
O701        C702   1.266       .  A
C702        O703   1.258       .  A
C702        C742   1.477       .  S
O703       Cr717   1.985       .  S
O704       Cr717   2.015       .  S
O704        C705   1.269       .  A
C705        C735   1.510       .  S
O706       Cr715   2.011       .  S
O706        C714   1.265       .  A
O707       Cr715   1.984       .  S
O707        C708   1.264       .  A
C708        O709   1.273       .  A
C708        C752   1.495       .  S
O709       Cr716   2.029       .  S
O710       Cr716   1.974       .  S
O710        C711   1.260       .  A
C711        O712   1.268       .  A
C711        C775   1.489       .  S
O712       Cr717   2.021       .  S
O713       Cr717   1.998       .  S
O713        C714   1.261       .  A
C714        C762   1.488       .  S
Cr715       O718   1.767       .  S
Cr716       O718   1.767       .  S
Cr717       O718   1.772       .  S
C719       C1236   1.659       .  S
C719        C745   1.658       .  S
C719       C1031   1.786   1_556  S
C720        C933   1.651       .  S
C721        C722   1.418       .  A
C721        C726   1.426       .  A
C721       Br728   1.954       .  S
C722        C723   1.414       .  A
C723        C724   1.419       .  A
C723      Br1234   1.948       .  S
C724        C725   1.459       .  A
C724      Br1233   1.929   1_556  S
C725        C887   1.651       .  S
C725        C726   1.462       .  A
C726       Br727   1.938       .  S
C731        C732   1.458       .  A
C731        C736   1.402       .  A
C732        C733   1.468       .  A
C733        C734   1.433       .  A
C733       Br740   1.908       .  S
C734        C735   1.400       .  A
C734       Br739   1.951       .  S
C735        C736   1.391       .  A
Br737       C904   1.929       .  S
Br738       C899   1.923       .  S
C741        C742   1.395       .  A
C741        C746   1.437       .  A
C741       Br748   1.942       .  S
C742        C743   1.379       .  A
C743        C744   1.391       .  A
C743       Br750   1.918       .  S
C744        C745   1.448       .  A
C744      Br1253   1.932       .  S
C745        C746   1.479       .  A
Br747       C914   1.922   1_554  S
C751        C752   1.394       .  A
C751        C756   1.420       .  A
C751       Br758   1.948       .  S
C752        C753   1.394       .  A
C753        C754   1.423       .  A
C753       Br760   1.943       .  S
C754        C755   1.469       .  A
C754      Br1263   1.920       .  S
C755       C1224   1.648       .  S
C755        C756   1.474       .  A
C756       Br757   1.925       .  S
C761        C762   1.381       .  A
C761        C766   1.404       .  A
C761       Br768   1.915       .  S
C762        C763   1.390       .  A
C763        C764   1.429       .  A
C763       Br770   1.942       .  S
C764        C765   1.469       .  A
C764       Br769   1.909       .  S
C765        C766   1.469       .  A
C766       Br767   1.935       .  S
C771        C772   1.455       .  A
C771        C776   1.423       .  A
C772       C1056   1.671       .  S
C772        C773   1.471       .  A
C773        C774   1.422       .  A
C773      Br1284   1.930       .  S
C774        C775   1.394       .  A
C774      Br1283   1.948       .  S
C775        C776   1.390       .  A
C776       Br777   1.945       .  S
Br778       C939   1.925       .  S
C781        C782   1.398       .  A
C781        C786   1.419       .  A
C781       Br956   1.939       .  S
C782        C783   1.403       .  A
C783        C784   1.417       .  A
C783       Br790   1.918       .  S
C784        C785   1.430       .  A
C785        C786   1.463       .  A
C786       Br955   1.932       .  S
Br789      C1288   1.931       .  S
C791        C792   1.396       .  A
C791        C796   1.432       .  A
C791       Br798   1.923       .  S
C792        C793   1.378       .  A
C793        C794   1.392       .  A
C793       Br800   1.903       .  S
C794        C795   1.442       .  A
C794       Br967   1.905       .  S
C795       C1200   1.645       .  S
C795        C796   1.477       .  A
C796       Br797   1.941       .  S
C801        C802   1.433       .  A
C801        C806   1.416       .  A
C802        C803   1.435       .  A
C803        C804   1.406       .  A
C803       Br810   1.910       .  S
C804        C805   1.413       .  A
C804       Br809   1.938       .  S
C805        C806   1.414       .  A
C806       Br807   1.948       .  S
Br808      C1305   1.928       .  S
C811        C812   1.466       .  A
C811        C816   1.403       .  A
C812        C813   1.471       .  A
C813        C814   1.437       .  A
C813       Br820   1.904   1_554  S
C814        C815   1.390       .  A
C814       Br819   1.947       .  S
C815        C816   1.374       .  A
C816       Br817   1.938       .  S
Br818      C1315   1.929       .  S
C821        C822   1.384       .  A
C821        C826   1.404       .  A
C821       Br828   1.941       .  S
C822        C823   1.392       .  A
C823        C824   1.429       .  A
C823       Br830   1.947       .  S
C824        C825   1.478       .  A
C824       Br829   1.943       .  S
C825       C1199   1.646       .  S
C825        C826   1.462       .  A
C826       Br995   1.935       .  S
C831        C832   1.400       .  A
C831        C836   1.416       .  A
C832        C833   1.405       .  A
C833        C834   1.417       .  A
C833       Br840   1.945       .  S
C834        C835   1.456       .  A
C834       Br839   1.925       .  S
C835        C836   1.472       .  A
Br837      C1340   1.951       .  S
Br838      C1335   1.946       .  S
O841       Cr859   1.968       .  S
O841        C849   1.255       .  A
O842       Cr859   2.013       .  S
O842        C843   1.268       .  A
C843        O844   1.255       .  A
C843        C990   1.481       .  S
O844       Cr860   1.976       .  S
O845       Cr860   2.016       .  S
O845        C846   1.268       .  A
C846        O847   1.266       .  A
C846        C983   1.481       .  S
O847       Cr861   1.983       .  S
O848       Cr861   2.031       .  S
O848        C849   1.266       .  A
C849       C1000   1.494       .  S
O850       Cr859   2.018       .  S
O850        C858   1.268       .  A
O851       Cr859   1.978       .  S
O851        C852   1.256       .  A
C852        O853   1.271       .  A
C852        C960   1.480       .  S
O853       Cr860   2.015       .  S
O854       Cr860   1.996       .  S
O854        C855   1.260       .  A
C855        O856   1.265       .  A
C855        C950   1.487       .  S
O856       Cr861   2.005       .  S
O857       Cr861   1.969       .  S
O857        C858   1.258       .  A
C858        C973   1.489       .  S
Cr859       O862   1.767       .  S
Cr860       O862   1.774       .  S
Cr861       O862   1.763       .  S
C863        C980   1.685   1_545  S
C864        C953   1.644   1_545  S
C864        C888   1.778   1_545  S
O865       Cr883   1.994       .  S
O865        C873   1.266       .  A
O866       Cr883   2.012       .  S
O866        C867   1.260       .  A
C867        O868   1.258       .  A
C867        C890   1.517       .  S
O868       Cr884   1.991       .  S
O869       Cr884   2.004       .  S
O869        C870   1.266       .  A
C870        O871   1.258       .  A
C870        C910   1.477       .  S
O871       Cr885   1.985       .  S
O872       Cr885   2.015       .  S
O872        C873   1.269       .  A
C873        C903   1.510       .  S
O874       Cr883   2.011       .  S
O874        C882   1.265       .  A
O875       Cr883   1.984       .  S
O875        C876   1.264       .  A
C876        O877   1.273       .  A
C876        C920   1.495       .  S
O877       Cr884   2.029       .  S
O878       Cr884   1.974       .  S
O878        C879   1.261       .  A
C879        O880   1.268       .  A
C879        C943   1.489       .  S
O880       Cr885   2.021       .  S
O881       Cr885   1.998       .  S
O881        C882   1.261       .  A
C882        C930   1.488       .  S
Cr883       O886   1.767       .  S
Cr884       O886   1.767       .  S
Cr885       O886   1.772       .  S
C887       C1404   1.659       .  S
C887        C913   1.658       .  S
C887       C1199   1.786   1_556  S
C889        C890   1.418       .  A
C889        C894   1.426       .  A
C889       Br896   1.954       .  S
C890        C891   1.414       .  A
C891        C892   1.419       .  A
C891      Br1402   1.948       .  S
C892        C893   1.459       .  A
C892      Br1401   1.929   1_556  S
C893        C894   1.462       .  A
C894       Br895   1.938       .  S
C899        C900   1.458       .  A
C899        C904   1.402       .  A
C900        C901   1.468       .  A
C901        C902   1.433       .  A
C901       Br908   1.908       .  S
C902        C903   1.400       .  A
C902       Br907   1.951       .  S
C903        C904   1.391       .  A
C909        C910   1.395       .  A
C909        C914   1.437       .  A
C909       Br916   1.942       .  S
C910        C911   1.379       .  A
C911        C912   1.391       .  A
C911       Br918   1.918       .  S
C912        C913   1.448       .  A
C912      Br1421   1.932       .  S
C913        C914   1.479       .  A
C919        C920   1.394       .  A
C919        C924   1.420       .  A
C919       Br926   1.948       .  S
C920        C921   1.394       .  A
C921        C922   1.423       .  A
C921       Br928   1.943       .  S
C922        C923   1.469       .  A
C922      Br1431   1.920       .  S
C923       C1392   1.648       .  S
C923        C924   1.474       .  A
C924       Br925   1.925       .  S
C929        C930   1.381       .  A
C929        C934   1.404       .  A
C929       Br936   1.915       .  S
C930        C931   1.390       .  A
C931        C932   1.429       .  A
C931       Br938   1.942       .  S
C932        C933   1.469       .  A
C932       Br937   1.909       .  S
C933        C934   1.469       .  A
C934       Br935   1.935       .  S
C939        C940   1.455       .  A
C939        C944   1.423       .  A
C940       C1224   1.671       .  S
C940        C941   1.471       .  A
C941        C942   1.422       .  A
C941      Br1452   1.930       .  S
C942        C943   1.394       .  A
C942      Br1451   1.948       .  S
C943        C944   1.390       .  A
C944       Br945   1.945       .  S
C949        C950   1.398       .  A
C949        C954   1.419   1_565  A
C950        C951   1.403       .  A
C951        C952   1.417       .  A
C951       Br958   1.918       .  S
C952        C953   1.430       .  A
C953        C954   1.463   1_565  A
Br957      C1456   1.931       .  S
C959        C960   1.396       .  A
C959        C964   1.432       .  A
C959       Br966   1.923       .  S
C960        C961   1.378       .  A
C961        C962   1.392       .  A
C961       Br968   1.903       .  S
C962        C963   1.442       .  A
C963       C1368   1.645   1_565  S
C963        C964   1.477       .  A
C964       Br965   1.941       .  S
C969        C970   1.433       .  A
C969        C974   1.416       .  A
C970        C971   1.435       .  A
C971        C972   1.406       .  A
C971       Br978   1.910       .  S
C972        C973   1.413       .  A
C972       Br977   1.938       .  S
C973        C974   1.414       .  A
C974       Br975   1.948       .  S
Br976      C1473   1.928       .  S
C979        C980   1.466       .  A
C979        C984   1.403       .  A
C980        C981   1.471       .  A
C981        C982   1.437       .  A
C981       Br988   1.904   1_554  S
C982        C983   1.390       .  A
C982       Br987   1.947       .  S
C983        C984   1.374       .  A
C984       Br985   1.938       .  S
Br986      C1483   1.929       .  S
C989        C990   1.384       .  A
C989        C994   1.404       .  A
C989       Br996   1.941   1_565  S
C990        C991   1.392       .  A
C991        C992   1.429       .  A
C991       Br998   1.947       .  S
C992        C993   1.478       .  A
C992       Br997   1.943       .  S
C993       C1367   1.646   1_565  S
C993        C994   1.462       .  A
C999       C1000   1.400       .  A
C999       C1004   1.416       .  A
C1000      C1001   1.405       .  A
C1001      C1002   1.417       .  A
C1001     Br1008   1.945       .  S
C1002      C1003   1.456       .  A
C1002     Br1007   1.925       .  S
C1003      C1004   1.472       .  A
Br1005     C1508   1.951       .  S
Br1006     C1503   1.946       .  S
O1009     Cr1027   1.968       .  S
O1009      C1017   1.255       .  A
O1010     Cr1027   2.013       .  S
O1010      C1011   1.268       .  A
C1011      O1012   1.255       .  A
C1011      C1158   1.481       .  S
O1012     Cr1028   1.976       .  S
O1013     Cr1028   2.016       .  S
O1013      C1014   1.268       .  A
C1014      O1015   1.266       .  A
C1014      C1151   1.481       .  S
O1015     Cr1029   1.983       .  S
O1016     Cr1029   2.031       .  S
O1016      C1017   1.266       .  A
C1017      C1168   1.494       .  S
O1018     Cr1027   2.018       .  S
O1018      C1026   1.268       .  A
O1019     Cr1027   1.978       .  S
O1019      C1020   1.256       .  A
C1020      O1021   1.271       .  A
C1020      C1128   1.480       .  S
O1021     Cr1028   2.015       .  S
O1022     Cr1028   1.996       .  S
O1022      C1023   1.260       .  A
C1023      O1024   1.265       .  A
C1023      C1118   1.487       .  S
O1024     Cr1029   2.005       .  S
O1025     Cr1029   1.969       .  S
O1025      C1026   1.258       .  A
C1026      C1141   1.489       .  S
Cr1027     O1030   1.767       .  S
Cr1028     O1030   1.774       .  S
Cr1029     O1030   1.763       .  S
C1031      C1148   1.685       .  S
C1031      C1339   1.665       .  S
C1032      C1121   1.644       .  S
C1032      C1306   1.659       .  S
C1032      C1056   1.778       .  S
O1033     Cr1051   1.994       .  S
O1033      C1041   1.266       .  A
O1034     Cr1051   2.012       .  S
O1034      C1035   1.260       .  A
C1035      O1036   1.258       .  A
C1035      C1058   1.517       .  S
O1036     Cr1052   1.991       .  S
O1037     Cr1052   2.004       .  S
O1037      C1038   1.266       .  A
C1038      O1039   1.258       .  A
C1038      C1078   1.477       .  S
O1039     Cr1053   1.985       .  S
O1040     Cr1053   2.015       .  S
O1040      C1041   1.269       .  A
C1041      C1071   1.510       .  S
O1042     Cr1051   2.011       .  S
O1042      C1050   1.265       .  A
O1043     Cr1051   1.984       .  S
O1043      C1044   1.264       .  A
C1044      O1045   1.273       .  A
C1044      C1088   1.495       .  S
O1045     Cr1052   2.029       .  S
O1046     Cr1052   1.974       .  S
O1046      C1047   1.260       .  A
C1047      O1048   1.268       .  A
C1047      C1111   1.489       .  S
O1048     Cr1053   2.021       .  S
O1049     Cr1053   1.998       .  S
O1049      C1050   1.261       .  A
C1050      C1098   1.488       .  S
Cr1051     O1054   1.767       .  S
Cr1052     O1054   1.767       .  S
Cr1053     O1054   1.772       .  S
C1055      C1397   1.651       .  S
C1055      C1081   1.658   1_565  S
C1056      C1269   1.651       .  S
C1057      C1058   1.418       .  A
C1057      C1062   1.426       .  A
C1057     Br1064   1.954       .  S
C1058      C1059   1.414       .  A
C1059      C1060   1.419       .  A
C1060      C1061   1.459       .  A
C1061      C1223   1.651       .  S
C1061      C1062   1.462       .  A
C1062     Br1063   1.938       .  S
C1067      C1068   1.458   1_565  A
C1067      C1072   1.402   1_565  A
C1067     Br1410   1.923       .  S
C1068      C1069   1.468       .  A
C1069      C1070   1.433       .  A
C1069     Br1076   1.908       .  S
C1070      C1071   1.400       .  A
C1070     Br1075   1.951       .  S
C1071      C1072   1.391       .  A
C1072     Br1409   1.929   1_545  S
Br1073     C1240   1.929       .  S
Br1074     C1235   1.923       .  S
C1077      C1078   1.395       .  A
C1077      C1082   1.437       .  A
C1077     Br1084   1.942       .  S
C1078      C1079   1.379       .  A
C1079      C1080   1.391       .  A
C1079     Br1086   1.918       .  S
C1080      C1081   1.448       .  A
C1081      C1082   1.479       .  A
C1082     Br1419   1.922   1_556  S
Br1083     C1250   1.922   1_554  S
C1087      C1088   1.394       .  A
C1087      C1092   1.420       .  A
C1087     Br1094   1.948       .  S
C1088      C1089   1.394       .  A
C1089      C1090   1.423       .  A
C1089     Br1096   1.943       .  S
C1090      C1091   1.469       .  A
C1091      C1092   1.474       .  A
C1092     Br1093   1.925       .  S
C1097      C1098   1.381       .  A
C1097      C1102   1.404       .  A
C1097     Br1104   1.915   1_545  S
C1098      C1099   1.390       .  A
C1099      C1100   1.429       .  A
C1099     Br1106   1.942       .  S
C1100      C1101   1.469       .  A
C1100     Br1105   1.909       .  S
C1101      C1392   1.651   1_545  S
C1101      C1102   1.469       .  A
C1102     Br1103   1.935   1_545  S
C1107      C1108   1.455       .  A
C1107      C1112   1.423       .  A
C1107     Br1450   1.925       .  S
C1108      C1109   1.471   1_655  A
C1109      C1110   1.422   1_455  A
C1110      C1111   1.394       .  A
C1111      C1112   1.390       .  A
C1112     Br1113   1.945       .  S
Br1114     C1275   1.925       .  S
C1117      C1118   1.398       .  A
C1117      C1122   1.419       .  A
C1117     Br1292   1.939       .  S
C1118      C1119   1.403       .  A
C1119      C1120   1.417       .  A
C1119     Br1126   1.918       .  S
C1120      C1121   1.430       .  A
C1121      C1122   1.463       .  A
C1122     Br1291   1.932       .  S
Br1123     C1458   1.932       .  S
Br1124     C1453   1.939   1_545  S
C1127      C1128   1.396       .  A
C1127      C1132   1.432       .  A
C1127     Br1134   1.923       .  S
C1128      C1129   1.378       .  A
C1129      C1130   1.392       .  A
C1129     Br1136   1.903       .  S
C1130      C1131   1.442       .  A
C1130     Br1303   1.905       .  S
C1131      C1132   1.477       .  A
C1132     Br1133   1.941       .  S
Br1135     C1466   1.905   1_545  S
C1137      C1138   1.433       .  A
C1137      C1142   1.416       .  A
C1138      C1368   1.659       .  S
C1138      C1139   1.435       .  A
C1139      C1140   1.406       .  A
C1139     Br1146   1.910       .  S
C1140      C1141   1.413       .  A
C1140     Br1145   1.938       .  S
C1141      C1142   1.414       .  A
C1142     Br1143   1.948       .  S
C1147      C1148   1.466       .  A
C1147      C1152   1.403       .  A
C1148      C1149   1.471       .  A
C1149      C1150   1.437       .  A
C1149     Br1156   1.904   1_554  S
C1150      C1151   1.390       .  A
C1150     Br1155   1.947       .  S
C1151      C1152   1.374       .  A
C1152     Br1153   1.938       .  S
C1157      C1158   1.384       .  A
C1157      C1162   1.404       .  A
C1157     Br1164   1.941       .  S
C1158      C1159   1.392       .  A
C1159      C1160   1.429       .  A
C1159     Br1166   1.947       .  S
C1160      C1161   1.478       .  A
C1160     Br1165   1.943       .  S
C1161      C1162   1.462       .  A
C1162     Br1331   1.935   1_655  S
Br1163     C1498   1.935   1_445  S
C1167      C1168   1.400       .  A
C1167      C1172   1.416       .  A
C1168      C1169   1.405       .  A
C1169      C1170   1.417       .  A
C1169     Br1176   1.945       .  S
C1170      C1171   1.456       .  A
C1170     Br1175   1.925       .  S
C1171      C1367   1.665       .  S
C1171      C1172   1.472       .  A
O1177     Cr1195   1.968       .  S
O1177      C1185   1.255       .  A
O1178     Cr1195   2.013       .  S
O1178      C1179   1.268       .  A
C1179      O1180   1.255       .  A
C1179      C1326   1.481       .  S
O1180     Cr1196   1.976       .  S
O1181     Cr1196   2.016       .  S
O1181      C1182   1.268       .  A
C1182      O1183   1.266       .  A
C1182      C1319   1.481       .  S
O1183     Cr1197   1.983       .  S
O1184     Cr1197   2.031       .  S
O1184      C1185   1.266       .  A
C1185      C1336   1.494       .  S
O1186     Cr1195   2.018       .  S
O1186      C1194   1.268       .  A
O1187     Cr1195   1.978       .  S
O1187      C1188   1.256       .  A
C1188      O1189   1.271       .  A
C1188      C1296   1.480       .  S
O1189     Cr1196   2.015       .  S
O1190     Cr1196   1.996       .  S
O1190      C1191   1.260       .  A
C1191      O1192   1.265       .  A
C1191      C1286   1.487       .  S
O1192     Cr1197   2.005       .  S
O1193     Cr1197   1.969       .  S
O1193      C1194   1.258       .  A
C1194      C1309   1.489       .  S
Cr1195     O1198   1.767       .  S
Cr1196     O1198   1.774       .  S
Cr1197     O1198   1.763       .  S
C1199      C1316   1.685       .  S
C1199      C1507   1.665       .  S
C1200      C1289   1.644       .  S
C1200      C1474   1.659       .  S
C1200      C1224   1.778       .  S
O1201     Cr1219   1.994       .  S
O1201      C1209   1.266       .  A
O1202     Cr1219   2.012       .  S
O1202      C1203   1.260       .  A
C1203      O1204   1.258       .  A
C1203      C1226   1.517       .  S
O1204     Cr1220   1.991       .  S
O1205     Cr1220   2.004       .  S
O1205      C1206   1.266       .  A
C1206      O1207   1.258       .  A
C1206      C1246   1.477       .  S
O1207     Cr1221   1.985       .  S
O1208     Cr1221   2.015       .  S
O1208      C1209   1.269       .  A
C1209      C1239   1.510       .  S
O1210     Cr1219   2.011       .  S
O1210      C1218   1.265       .  A
O1211     Cr1219   1.984       .  S
O1211      C1212   1.264       .  A
C1212      O1213   1.273       .  A
C1212      C1256   1.495       .  S
O1213     Cr1220   2.029       .  S
O1214     Cr1220   1.974       .  S
O1214      C1215   1.260       .  A
C1215      O1216   1.268       .  A
C1215      C1279   1.489       .  S
O1216     Cr1221   2.021       .  S
O1217     Cr1221   1.998       .  S
O1217      C1218   1.261       .  A
C1218      C1266   1.488       .  S
Cr1219     O1222   1.767       .  S
Cr1220     O1222   1.767       .  S
Cr1221     O1222   1.772       .  S
C1223      C1249   1.658       .  S
C1224      C1437   1.651       .  S
C1225      C1226   1.418       .  A
C1225      C1230   1.426       .  A
C1225     Br1232   1.954       .  S
C1226      C1227   1.414       .  A
C1227      C1228   1.419       .  A
C1228      C1229   1.459       .  A
C1229      C1391   1.651       .  S
C1229      C1230   1.462       .  A
C1230     Br1231   1.938       .  S
C1235      C1236   1.458       .  A
C1235      C1240   1.402       .  A
C1236      C1237   1.468       .  A
C1237      C1238   1.433       .  A
C1237     Br1244   1.908       .  S
C1238      C1239   1.400       .  A
C1238     Br1243   1.951       .  S
C1239      C1240   1.391       .  A
Br1241     C1408   1.929       .  S
Br1242     C1403   1.923       .  S
C1245      C1246   1.395       .  A
C1245      C1250   1.437       .  A
C1245     Br1252   1.942       .  S
C1246      C1247   1.379       .  A
C1247      C1248   1.391       .  A
C1247     Br1254   1.918       .  S
C1248      C1249   1.448       .  A
C1249      C1250   1.479       .  A
Br1251     C1418   1.922   1_554  S
C1255      C1256   1.394       .  A
C1255      C1260   1.420       .  A
C1255     Br1262   1.948       .  S
C1256      C1257   1.394       .  A
C1257      C1258   1.423       .  A
C1257     Br1264   1.943       .  S
C1258      C1259   1.469       .  A
C1259      C1260   1.474       .  A
C1260     Br1261   1.925       .  S
C1265      C1266   1.381       .  A
C1265      C1270   1.404       .  A
C1265     Br1272   1.915       .  S
C1266      C1267   1.390       .  A
C1267      C1268   1.429       .  A
C1267     Br1274   1.942       .  S
C1268      C1269   1.469       .  A
C1268     Br1273   1.909       .  S
C1269      C1270   1.469       .  A
C1270     Br1271   1.935       .  S
C1275      C1276   1.455       .  A
C1275      C1280   1.423       .  A
C1276      C1277   1.471   1_655  A
C1277      C1278   1.422   1_455  A
C1278      C1279   1.394       .  A
C1279      C1280   1.390       .  A
C1280     Br1281   1.945       .  S
Br1282     C1443   1.925       .  S
C1285      C1286   1.398       .  A
C1285      C1290   1.419       .  A
C1285     Br1460   1.939       .  S
C1286      C1287   1.403       .  A
C1287      C1288   1.417       .  A
C1287     Br1294   1.918       .  S
C1288      C1289   1.430       .  A
C1289      C1290   1.463       .  A
C1290     Br1459   1.932       .  S
C1295      C1296   1.396       .  A
C1295      C1300   1.432       .  A
C1295     Br1302   1.923       .  S
C1296      C1297   1.378       .  A
C1297      C1298   1.392       .  A
C1297     Br1304   1.903       .  S
C1298      C1299   1.442       .  A
C1298     Br1471   1.905       .  S
C1299      C1300   1.477       .  A
C1300     Br1301   1.941       .  S
C1305      C1306   1.433       .  A
C1305      C1310   1.416       .  A
C1306      C1307   1.435       .  A
C1307      C1308   1.406       .  A
C1307     Br1314   1.910       .  S
C1308      C1309   1.413       .  A
C1308     Br1313   1.938       .  S
C1309      C1310   1.414       .  A
C1310     Br1311   1.948       .  S
C1315      C1316   1.466       .  A
C1315      C1320   1.403       .  A
C1316      C1317   1.471       .  A
C1317      C1318   1.437       .  A
C1317     Br1324   1.904   1_554  S
C1318      C1319   1.390       .  A
C1318     Br1323   1.947       .  S
C1319      C1320   1.374       .  A
C1320     Br1321   1.938       .  S
C1325      C1326   1.384       .  A
C1325      C1330   1.404       .  A
C1325     Br1332   1.941       .  S
C1326      C1327   1.392       .  A
C1327      C1328   1.429       .  A
C1327     Br1334   1.947       .  S
C1328      C1329   1.478       .  A
C1328     Br1333   1.943       .  S
C1329      C1330   1.462       .  A
C1330     Br1499   1.935   1_655  S
C1335      C1336   1.400       .  A
C1335      C1340   1.416       .  A
C1336      C1337   1.405       .  A
C1337      C1338   1.417       .  A
C1337     Br1344   1.945       .  S
C1338      C1339   1.456       .  A
C1338     Br1343   1.925       .  S
C1339      C1340   1.472       .  A
O1345     Cr1363   1.968       .  S
O1345      C1353   1.255       .  A
O1346     Cr1363   2.013       .  S
O1346      C1347   1.268       .  A
C1347      O1348   1.255       .  A
C1347      C1494   1.481       .  S
O1348     Cr1364   1.976       .  S
O1349     Cr1364   2.016       .  S
O1349      C1350   1.268       .  A
C1350      O1351   1.266       .  A
C1350      C1487   1.481       .  S
O1351     Cr1365   1.983       .  S
O1352     Cr1365   2.031       .  S
O1352      C1353   1.266       .  A
C1353      C1504   1.494       .  S
O1354     Cr1363   2.018       .  S
O1354      C1362   1.268       .  A
O1355     Cr1363   1.978       .  S
O1355      C1356   1.256       .  A
C1356      O1357   1.271       .  A
C1356      C1464   1.480       .  S
O1357     Cr1364   2.015       .  S
O1358     Cr1364   1.996       .  S
O1358      C1359   1.260       .  A
C1359      O1360   1.265       .  A
C1359      C1454   1.487       .  S
O1360     Cr1365   2.005       .  S
O1361     Cr1365   1.969       .  S
O1361      C1362   1.258       .  A
C1362      C1477   1.489       .  S
Cr1363     O1366   1.767       .  S
Cr1364     O1366   1.774       .  S
Cr1365     O1366   1.763       .  S
C1367      C1484   1.685   1_545  S
C1368      C1457   1.644   1_545  S
C1368      C1392   1.778   1_545  S
O1369     Cr1387   1.994       .  S
O1369      C1377   1.266       .  A
O1370     Cr1387   2.012       .  S
O1370      C1371   1.260       .  A
C1371      O1372   1.258       .  A
C1371      C1394   1.517       .  S
O1372     Cr1388   1.991       .  S
O1373     Cr1388   2.004       .  S
O1373      C1374   1.266       .  A
C1374      O1375   1.258       .  A
C1374      C1414   1.477       .  S
O1375     Cr1389   1.985       .  S
O1376     Cr1389   2.015       .  S
O1376      C1377   1.269       .  A
C1377      C1407   1.510       .  S
O1378     Cr1387   2.011       .  S
O1378      C1386   1.265       .  A
O1379     Cr1387   1.984       .  S
O1379      C1380   1.264       .  A
C1380      O1381   1.273       .  A
C1380      C1424   1.495       .  S
O1381     Cr1388   2.029       .  S
O1382     Cr1388   1.974       .  S
O1382      C1383   1.261       .  A
C1383      O1384   1.268       .  A
C1383      C1447   1.489       .  S
O1384     Cr1389   2.021       .  S
O1385     Cr1389   1.998       .  S
O1385      C1386   1.261       .  A
C1386      C1434   1.488       .  S
Cr1387     O1390   1.767       .  S
Cr1388     O1390   1.767       .  S
Cr1389     O1390   1.772       .  S
C1391      C1417   1.658       .  S
C1393      C1394   1.418       .  A
C1393      C1398   1.426       .  A
C1393     Br1400   1.954       .  S
C1394      C1395   1.414       .  A
C1395      C1396   1.419       .  A
C1396      C1397   1.459       .  A
C1397      C1398   1.462       .  A
C1398     Br1399   1.938       .  S
C1403      C1404   1.458       .  A
C1403      C1408   1.402       .  A
C1404      C1405   1.468       .  A
C1405      C1406   1.433       .  A
C1405     Br1412   1.908       .  S
C1406      C1407   1.400       .  A
C1406     Br1411   1.951       .  S
C1407      C1408   1.391       .  A
C1413      C1414   1.395       .  A
C1413      C1418   1.437       .  A
C1413     Br1420   1.942       .  S
C1414      C1415   1.379       .  A
C1415      C1416   1.391       .  A
C1415     Br1422   1.918       .  S
C1416      C1417   1.448       .  A
C1417      C1418   1.479       .  A
C1423      C1424   1.394       .  A
C1423      C1428   1.420       .  A
C1423     Br1430   1.948       .  S
C1424      C1425   1.394       .  A
C1425      C1426   1.423       .  A
C1425     Br1432   1.943       .  S
C1426      C1427   1.469       .  A
C1427      C1428   1.474       .  A
C1428     Br1429   1.925       .  S
C1433      C1434   1.381       .  A
C1433      C1438   1.404       .  A
C1433     Br1440   1.915       .  S
C1434      C1435   1.390       .  A
C1435      C1436   1.429       .  A
C1435     Br1442   1.942       .  S
C1436      C1437   1.469       .  A
C1436     Br1441   1.909       .  S
C1437      C1438   1.469       .  A
C1438     Br1439   1.935       .  S
C1443      C1444   1.455       .  A
C1443      C1448   1.423       .  A
C1444      C1445   1.471   1_655  A
C1445      C1446   1.422   1_455  A
C1446      C1447   1.394       .  A
C1447      C1448   1.390       .  A
C1448     Br1449   1.945       .  S
C1453      C1454   1.398       .  A
C1453      C1458   1.419   1_565  A
C1454      C1455   1.403       .  A
C1455      C1456   1.417       .  A
C1455     Br1462   1.918       .  S
C1456      C1457   1.430       .  A
C1457      C1458   1.463   1_565  A
C1463      C1464   1.396       .  A
C1463      C1468   1.432       .  A
C1463     Br1470   1.923       .  S
C1464      C1465   1.378       .  A
C1465      C1466   1.392       .  A
C1465     Br1472   1.903       .  S
C1466      C1467   1.442       .  A
C1467      C1468   1.477       .  A
C1468     Br1469   1.941       .  S
C1473      C1474   1.433       .  A
C1473      C1478   1.416       .  A
C1474      C1475   1.435       .  A
C1475      C1476   1.406       .  A
C1475     Br1482   1.910       .  S
C1476      C1477   1.413       .  A
C1476     Br1481   1.938       .  S
C1477      C1478   1.414       .  A
C1478     Br1479   1.948       .  S
C1483      C1484   1.466       .  A
C1483      C1488   1.403       .  A
C1484      C1485   1.471       .  A
C1485      C1486   1.437       .  A
C1485     Br1492   1.904   1_554  S
C1486      C1487   1.390       .  A
C1486     Br1491   1.947       .  S
C1487      C1488   1.374       .  A
C1488     Br1489   1.938       .  S
C1493      C1494   1.384       .  A
C1493      C1498   1.404       .  A
C1493     Br1500   1.941   1_565  S
C1494      C1495   1.392       .  A
C1495      C1496   1.429       .  A
C1495     Br1502   1.947       .  S
C1496      C1497   1.478       .  A
C1496     Br1501   1.943       .  S
C1497      C1498   1.462       .  A
C1503      C1504   1.400       .  A
C1503      C1508   1.416       .  A
C1504      C1505   1.405       .  A
C1505      C1506   1.417       .  A
C1505     Br1512   1.945       .  S
C1506      C1507   1.456       .  A
C1506     Br1511   1.925       .  S
C1507      C1508   1.472       .  A
