geometry optimzed in LAMMPS
_audit_creation_date              2020-12-01 
_audit_creation_method            'lammps2cif' 
_symmetry_space_group_name_H-M    'P1' 
_symmetry_Int_Tables_number       1 
_symmetry_cell_setting            triclinic 
loop_ 
_symmetry_equiv_pos_as_xyz 
  x,y,z 
_cell_length_a                    41.07430014 
_cell_length_b                    44.66371966405175 
_cell_length_c                    45.19659814397039 
_cell_angle_alpha                 89.78974205751481 
_cell_angle_beta                  89.92593850750114 
_cell_angle_gamma                 89.98720286154912 
loop_ 
_atom_site_label 
_atom_site_type_symbol 
_atom_site_fract_x 
_atom_site_fract_y 
_atom_site_fract_z 
_atom_site_charge 
C1          C  0.23534536  0.57183569  0.27508793     0.03500
C2          C  0.25788797  0.55513306  0.25860493    -0.12600
C3          C  0.28185714  0.56961130  0.24166988     0.01000
C4          C  0.28336515  0.60101081  0.24145191    -0.11200
C5          C  0.26124959  0.61795922  0.25802753     0.03500
C6          C  0.23756607  0.60328274  0.27509917    -0.10600
H7          H  0.25663256  0.53089446  0.25876210     0.09100
H8          H  0.30173399  0.61230323  0.22826913     0.06600
H9          H  0.22079436  0.61638655  0.28830098     0.06500
C10         C  0.28886420  0.89238554  0.26199595     0.03500
C11         C  0.29034865  0.86099554  0.26326076    -0.12600
C12         C  0.26668935  0.84348428  0.24940516     0.01000
C13         C  0.24117950  0.85750538  0.23408483    -0.11200
C14         C  0.23964018  0.88889040  0.23213439     0.03500
C15         C  0.26358632  0.90629809  0.24609571    -0.10600
H16         H  0.30962066  0.85010733  0.27565810     0.09100
H17         H  0.22278985  0.84399549  0.22331120     0.06600
H18         H  0.26255169  0.93049514  0.24455820     0.06500
Zr19       Zr  0.54040363  0.95193610  0.53850125     2.17500
O20         O  0.59469999  0.93586648  0.55361431    -0.51000
O21         O  0.51577230  0.91683055  0.57374845    -0.74200
O22         O  0.55954197  0.97766057  0.58273724    -0.80900
O23         O  0.54270607  0.90006764  0.47076288    -0.82700
O24         O  0.53616084  0.02364980  0.58520277    -0.78300
O25         O  0.56628501  0.90895924  0.51532346    -0.90000
O26         O  0.46097056  0.92148505  0.57016960    -0.75900
O27         O  0.49400077  0.97865378  0.55573232    -0.85400
O28         O  0.49517667  0.93057471  0.51339394    -0.85100
O29         O  0.55045508  0.00348793  0.52541822    -0.71900
O30         O  0.55029644  0.95977116  0.48664803    -0.84000
Zr31       Zr  0.46687841  0.01703010  0.46522857     2.26400
Zr32       Zr  0.50278324  0.02980136  0.54140246     2.06300
Zr33       Zr  0.50395168  0.93955866  0.46181610     2.10000
Zr34       Zr  0.44899597  0.95721209  0.53054568     1.78800
O35         O  0.53504608  0.92966111  0.41697630    -0.92800
O36         O  0.41840422  0.97614972  0.57270859    -0.40600
O37         O  0.45658892  0.96558955  0.47837011    -0.77200
O38         O  0.45652460  0.00874801  0.51711059    -0.95900
O39         O  0.51240809  0.03823219  0.48993425    -0.89200
O40         O  0.51330633  0.99048176  0.44803187    -0.92100
C41         C  0.48666114  0.90975969  0.58163927     1.01700
C42         C  0.56332762  0.89406382  0.49117717     1.14600
C43         C  0.55503918  0.00309899  0.59529236     1.05400
O44         O  0.46994429  0.04388290  0.58408229    -0.94200
O45         O  0.46648812  0.07108711  0.52989291    -0.90000
O46         O  0.44418295  0.06306413  0.48471397    -0.83100
C47         C  0.44722666  0.07817821  0.50866281     1.12000
O48         O  0.61582296  0.00241555  0.48540183    -0.96200
Zr49       Zr  0.55872442  0.01110716  0.47339569     1.88900
O50         O  0.49266995  0.05013396  0.42900249    -0.72800
O51         O  0.53619941  0.07477717  0.54306042    -0.52100
O52         O  0.58647544  0.05701375  0.48779366    -0.96800
O53         O  0.58933328  0.99122013  0.43158112    -0.54000
O54         O  0.54734225  0.04664242  0.43393124    -0.73400
C55         C  0.52183250  0.05747684  0.42153034     0.99000
O56         O  0.41230467  0.03411405  0.45216857    -0.62200
O57         O  0.47093032  0.89446290  0.45761708    -0.57000
O58         O  0.44574417  0.99175910  0.42160460    -0.93700
O59         O  0.46809640  0.94535412  0.41993078    -0.92100
O60         O  0.42238797  0.91042160  0.51732388    -0.92400
O61         O  0.39189099  0.96597753  0.51898207    -0.91200
C62         C  0.44939985  0.96589926  0.40974349     1.17800
H63         H  0.49335033  0.90937608  0.51742948     0.33800
H64         H  0.43702696  0.01925271  0.52299745     0.44600
H65         H  0.51576470  0.99228006  0.42685924     0.38200
H66         H  0.56948251  0.01083790  0.53559538     0.34600
H67         H  0.40705959  0.95839248  0.58089667     0.26400
H68         H  0.53020835  0.08444596  0.56197060     0.32400
H69         H  0.57061898  0.07324029  0.48386335     0.38300
H70         H  0.41717989  0.91258002  0.49604124     0.32700
H71         H  0.47716390  0.88570934  0.43833005     0.31600
H72         H  0.52251900  0.91407396  0.40641762     0.33300
H73         H  0.57682346  0.99713879  0.41379262     0.32300
H74         H  0.39215625  0.98259352  0.50441503     0.36200
H75         H  0.41314961  0.03944822  0.43089425     0.29000
H76         H  0.59233825  0.92842520  0.57416795     0.33200
H77         H  0.62842828  0.01509298  0.47148743     0.36100
H78         H  0.47980121  0.88037699  0.47251618     0.28700
H79         H  0.39832085  0.01609224  0.45330924     0.41500
H80         H  0.44706970  0.04182616  0.57748849     0.31600
H81         H  0.43514075  0.98105158  0.58767074     0.39200
H82         H  0.58646617  0.96925263  0.43296559     0.31100
H83         H  0.55867434  0.06745889  0.54624932     0.31100
H84         H  0.60785016  0.95437316  0.55517721     0.31400
C85         C  0.72868366  0.39171984  0.77215364     0.03500
C86         C  0.72905312  0.36040314  0.77396354    -0.12600
C87         C  0.74383217  0.34305095  0.75174971     0.01000
C88         C  0.76060606  0.35808008  0.72890811    -0.11200
C89         C  0.76317661  0.38938550  0.72871691     0.03500
C90         C  0.74638768  0.40617315  0.74987550    -0.10600
H91         H  0.71729886  0.34984704  0.79266792     0.09100
H92         H  0.77266957  0.34559155  0.71160219     0.06600
H93         H  0.74720539  0.43042390  0.74907824     0.06500
C94         C  0.75489696  0.06809183  0.78850946     0.03500
C95         C  0.73305348  0.05275482  0.77010821    -0.12600
C96         C  0.71293597  0.06880423  0.75075190     0.01000
C97         C  0.71651380  0.09984560  0.74817976    -0.11200
C98         C  0.73738859  0.11584901  0.76705118     0.03500
C99         C  0.75511648  0.09954406  0.78839179    -0.10600
H100        H  0.73180029  0.02852932  0.77081969     0.09100
H101        H  0.70278363  0.11124627  0.73110348     0.06600
H102        H  0.77009557  0.11096317  0.80441058     0.06500
C103        C  0.57385474  0.21249768  0.26674605     0.03500
C104        C  0.60801929  0.21339761  0.26673688    -0.12600
C105        C  0.62547456  0.22798483  0.24414994     0.01000
C106        C  0.60771557  0.24374020  0.22239483    -0.11200
C107        C  0.57345044  0.24493615  0.22307518     0.03500
C108        C  0.55657351  0.22833340  0.24482819    -0.10600
H109        H  0.62093478  0.20246702  0.28460697     0.09100
H110        H  0.62048152  0.25560872  0.20497067     0.06600
H111        H  0.53020060  0.22821510  0.24505043     0.06500
C112        C  0.92683062  0.24657324  0.26303216     0.03500
C113        C  0.94392373  0.22869908  0.24260588    -0.12600
C114        C  0.92676575  0.21180428  0.22141231     0.01000
C115        C  0.89253368  0.21347331  0.22059418    -0.11200
C116        C  0.87492121  0.23026364  0.24162348     0.03500
C117        C  0.89267400  0.24584483  0.26326711    -0.10600
H118        H  0.97029331  0.22840477  0.24278746     0.09100
H119        H  0.87974256  0.20120820  0.20357809     0.06600
H120        H  0.88012107  0.25761369  0.28075957     0.06500
Zr121      Zr  0.03592226  0.44042510  0.46455240     2.17500
O122        O  0.08776583  0.42398568  0.44370938    -0.51000
O123        O  0.01238404  0.40552287  0.42834012    -0.74200
O124        O  0.05981954  0.39770274  0.49031031    -0.80900
O125        O  0.04218587  0.51481920  0.42162739    -0.82700
O126        O  0.03513862  0.39073669  0.53471936    -0.78300
O127        O  0.06565835  0.46906003  0.42704186    -0.90000
O128        O  0.95758324  0.40443980  0.43444949    -0.75900
O129        O  0.98967526  0.41954533  0.48876823    -0.85400
O130        O  0.98998346  0.46478376  0.44333718    -0.85100
O131        O  0.04327862  0.45155993  0.51642807    -0.71900
O132        O  0.04281014  0.49254413  0.47585997    -0.84000
Zr133      Zr  0.95626184  0.50767257  0.53084838     2.26400
Zr134      Zr  0.99586496  0.43111855  0.54028159     2.06300
Zr135      Zr  0.99618360  0.51665413  0.45514089     2.10000
Zr136      Zr  0.94383143  0.44458373  0.46815266     1.78800
O137        O  0.01945392  0.56621777  0.44785628    -0.92800
O138        O  0.91328628  0.40139257  0.48596881    -0.40600
O139        O  0.94890535  0.49691223  0.47913649    -0.77200
O140        O  0.94898535  0.45537608  0.51979121    -0.95900
O141        O  0.00212212  0.48309182  0.55182287    -0.89200
O142        O  0.00230433  0.52846063  0.50647170    -0.92100
C143        C  0.98388611  0.39520827  0.42225095     1.01700
C144        C  0.06413733  0.49537332  0.41544003     1.14600
C145        C  0.05606949  0.38353499  0.51485493     1.05400
O146        O  0.96535457  0.38458486  0.54479468    -0.94200
O147        O  0.95604826  0.43799628  0.57988037    -0.90000
O148        O  0.93338412  0.48409887  0.57439104    -0.83100
C149        C  0.93605630  0.45874888  0.58763689     1.12000
O150        O  0.10690095  0.49640374  0.52564004    -0.96200
Zr151      Zr  0.04809416  0.50389188  0.52744455     1.88900
O152        O  0.97771826  0.54288350  0.56778226    -0.72800
O153        O  0.02482139  0.42494524  0.58691833    -0.52100
O154        O  0.07216135  0.48686319  0.57380366    -0.96800
O155        O  0.07780994  0.54701432  0.50803770    -0.54000
O156        O  0.03272126  0.54269503  0.56268207    -0.73400
C157        C  0.00633216  0.55252578  0.57450454     0.99000
O158        O  0.89897619  0.51646896  0.54232458    -0.62200
O159        O  0.96975191  0.51687317  0.40687581    -0.57000
O160        O  0.93495892  0.55257878  0.50722113    -0.93700
O161        O  0.95545019  0.55525933  0.46064375    -0.92100
O162        O  0.92072407  0.46040367  0.42101939    -0.92400
O163        O  0.88532058  0.45294870  0.47121608    -0.91200
C164        C  0.93702482  0.56476727  0.48152687     1.17800
H165        H  0.98900198  0.46171412  0.42219600     0.33800
H166        H  0.92939294  0.44799185  0.52914028     0.44600
H167        H  0.00333733  0.54986990  0.50925761     0.38200
H168        H  0.06283018  0.44228744  0.52394559     0.34600
H169        H  0.90230251  0.39336140  0.46819700     0.26400
H170        H  0.02282112  0.40338278  0.59175907     0.32400
H171        H  0.05541881  0.49083723  0.58907042     0.38300
H172        H  0.90919897  0.44252993  0.41346568     0.32700
H173        H  0.94621308  0.51857522  0.41130503     0.31600
H174        H  0.01122064  0.57292523  0.42835001     0.33300
H175        H  0.06081526  0.56144660  0.50189413     0.32300
H176        H  0.88221540  0.46412128  0.48988697     0.36200
H177        H  0.89764743  0.53719613  0.54993082     0.29000
H178        H  0.08510620  0.40246622  0.43909015     0.33200
H179        H  0.11624914  0.51155651  0.53914197     0.36100
H180        H  0.97561267  0.53643461  0.39798775     0.28700
H181        H  0.88768212  0.51697699  0.52298066     0.41500
H182        H  0.97360078  0.37174309  0.52861675     0.31600
H183        H  0.93010023  0.38629425  0.49083819     0.39200
H184        H  0.08740280  0.54004455  0.48916569     0.31100
H185        H  0.04807817  0.42772074  0.58182109     0.31100
H186        H  0.10365572  0.42469217  0.46015701     0.31400
C187        C  0.42386026  0.70948691  0.76608557     0.03500
C188        C  0.38970966  0.70666889  0.76482728    -0.12600
C189        C  0.37106521  0.72486999  0.74582917     0.01000
C190        C  0.38714884  0.74609335  0.72793086    -0.11200
C191        C  0.42124337  0.74937064  0.72894505     0.03500
C192        C  0.43946513  0.73119668  0.74836709    -0.10600
H193        H  0.37763360  0.69017846  0.77865131     0.09100
H194        H  0.37306307  0.76037308  0.71333143     0.06600
H195        H  0.46570691  0.73348875  0.74921665     0.06500
C196        C  0.07254948  0.74992732  0.75977315     0.03500
C197        C  0.10678836  0.74829767  0.75935288    -0.12600
C198        C  0.12332844  0.72788514  0.74115513     0.01000
C199        C  0.10503227  0.70815100  0.72362686    -0.11200
C200        C  0.07072372  0.70885182  0.72376135     0.03500
C201        C  0.05458040  0.73025012  0.74148929    -0.10600
H202        H  0.12073419  0.76262060  0.77390748     0.09100
H203        H  0.11755178  0.69210417  0.70973311     0.06600
H204        H  0.02823276  0.73116700  0.74143616     0.06500
Zr205      Zr  0.96072004  0.93726374  0.96755692     2.17500
O206        O  0.90541754  0.91957642  0.95880568    -0.51000
O207        O  0.98282657  0.90402979  0.92938659    -0.74200
O208        O  0.93581633  0.96273828  0.92545402    -0.80900
O209        O  0.95861523  0.88911298  0.03815773    -0.82700
O210        O  0.96035131  0.00784888  0.91983866    -0.78300
O211        O  0.93635908  0.89433241  0.99242338    -0.90000
O212        O  0.03791986  0.90457786  0.93360174    -0.75900
O213        O  0.00633999  0.96292087  0.94705244    -0.85400
O214        O  0.00713401  0.91564996  0.99082715    -0.85100
O215        O  0.95210887  0.98907734  0.98001378    -0.71900
O216        O  0.95472196  0.94654484  0.01960336    -0.84000
Zr217      Zr  0.03952345  0.00339918  0.03522202     2.26400
Zr218      Zr  0.99874905  0.01443842  0.96037253     2.06300
Zr219      Zr  0.00199202  0.92581645  0.04262485     2.10000
Zr220      Zr  0.05252669  0.94142832  0.97077394     1.78800
O221        O  0.97778432  0.91759425  0.09120027    -0.92800
O222        O  0.07964544  0.95858881  0.92581074    -0.40600
O223        O  0.04822838  0.95152480  0.02283364    -0.77200
O224        O  0.04645052  0.99321654  0.98295594    -0.95900
O225        O  0.99281903  0.02464738  0.01209396    -0.89200
O226        O  0.99434395  0.97744977  0.05582504    -0.92100
C227        C  0.01146866  0.89536151  0.92164474     1.01700
C228        C  0.93832142  0.88158886  0.01790935     1.14600
C229        C  0.93920372  0.98807328  0.91227015     1.05400
O230        O  0.02120320  0.03079722  0.91314494    -0.94200
O231        O  0.04090285  0.05229801  0.96550635    -0.90000
O232        O  0.06468049  0.04556221  0.01035695    -0.83100
C233        C  0.06197749  0.05905429  0.98536994     1.12000
O234        O  0.88946061  0.99023773  0.02460405    -0.96200
Zr235      Zr  0.94760886  0.99815624  0.03211266     1.88900
O236        O  0.01580833  0.03990220  0.07008799    -0.72800
O237        O  0.96603756  0.05981557  0.96326357    -0.52100
O238        O  0.91819498  0.04300328  0.01673865    -0.96800
O239        O  0.92111729  0.97899489  0.07662757    -0.54000
O240        O  0.96081232  0.03593592  0.06861249    -0.73400
C241        C  0.98706111  0.04766210  0.07863081     0.99000
O242        O  0.09191193  0.02412005  0.05039918    -0.62200
O243        O  0.02859311  0.87713892  0.04429924    -0.57000
O244        O  0.06611880  0.97606000  0.07568675    -0.93700
O245        O  0.04668418  0.92861195  0.07770756    -0.92100
O246        O  0.08052306  0.89563809  0.98529507    -0.92400
O247        O  0.11093574  0.94778000  0.97742871    -0.91200
C248        C  0.06604811  0.94932741  0.08641178     1.17800
H249        H  0.00834735  0.89447590  0.98702856     0.33800
H250        H  0.06607139  0.00237197  0.97540188     0.44600
H251        H  0.99373327  0.98007278  0.07701189     0.38200
H252        H  0.93237158  0.99651184  0.97104162     0.34600
H253        H  0.09006739  0.94043938  0.91756218     0.26400
H254        H  0.97402010  0.07247186  0.94676167     0.32400
H255        H  0.93443764  0.05934902  0.01755954     0.38300
H256        H  0.07873229  0.89504528  0.00713096     0.32700
H257        H  0.02218131  0.86881796  0.06377572     0.31600
H258        H  0.98639496  0.93379231  0.10385886     0.33300
H259        H  0.93865909  0.97664345  0.09143168     0.32300
H260        H  0.11293813  0.96080326  0.99501516     0.36200
H261        H  0.08997977  0.02840088  0.07181747     0.29000
H262        H  0.90637773  0.90866768  0.93982762     0.33200
H263        H  0.87840978  0.00219217  0.04006280     0.36100
H264        H  0.01703894  0.86450142  0.02976354     0.28700
H265        H  0.10790171  0.00759457  0.04886962     0.41500
H266        H  0.04123755  0.01874601  0.91064763     0.31600
H267        H  0.06175368  0.96317782  0.91185447     0.39200
H268        H  0.91480821  0.95822631  0.07162780     0.31100
H269        H  0.94393827  0.05363126  0.95705678     0.31100
H270        H  0.89193665  0.93753129  0.95488424     0.31400
C271        C  0.22315918  0.23922497  0.59229155     0.03500
C272        C  0.24650912  0.22413814  0.57521898    -0.12600
C273        C  0.27040173  0.20663303  0.58900592     0.01000
C274        C  0.27132167  0.20442848  0.61984995    -0.11200
C275        C  0.24759663  0.21838359  0.63732043     0.03500
C276        C  0.22345550  0.23577182  0.62329331    -0.10600
H277        H  0.24642842  0.22637030  0.55133095     0.09100
H278        H  0.29104445  0.19214426  0.63016310     0.06600
H279        H  0.20502418  0.24684344  0.63648899     0.06500
C280        C  0.23837680  0.19241998  0.90756010     0.03500
C281        C  0.23755768  0.19342563  0.87651062    -0.12600
C282        C  0.25876704  0.21210387  0.86066536     0.01000
C283        C  0.28092516  0.23007339  0.87608250    -0.11200
C284        C  0.28152698  0.22979501  0.90710620     0.03500
C285        C  0.26032630  0.21089793  0.92282749    -0.10600
H286        H  0.22013475  0.17982200  0.86459460     0.09100
H287        H  0.29705308  0.24493567  0.86398144     0.06600
H288        H  0.26069731  0.21081801  0.94680432     0.06500
Zr289      Zr  0.53334697  0.51407199  0.96472446     2.17500
O290        O  0.58857886  0.53112834  0.95396549    -0.51000
O291        O  0.51125047  0.55013709  0.92925901    -0.74200
O292        O  0.55712908  0.49056959  0.92153166    -0.80900
O293        O  0.53441137  0.56037133  0.03585597    -0.82700
O294        O  0.53293567  0.44568747  0.91413792    -0.78300
O295        O  0.55881431  0.55499542  0.99108507    -0.90000
O296        O  0.45625917  0.54945348  0.93381202    -0.75900
O297        O  0.48711816  0.49008381  0.94373122    -0.85400
O298        O  0.48752203  0.53477171  0.98947988    -0.85100
O299        O  0.54160758  0.46170751  0.97467823    -0.71900
O300        O  0.54069053  0.50216241  0.01610699    -0.84000
Zr301      Zr  0.45440278  0.44506201  0.03003058     2.26400
Zr302      Zr  0.49447769  0.43793342  0.95438696     2.06300
Zr303      Zr  0.49379339  0.52165818  0.04040405     2.10000
Zr304      Zr  0.44143914  0.51042991  0.96919258     1.78800
O305        O  0.52330183  0.52640250  0.08685494    -0.92800
O306        O  0.41222475  0.49845509  0.92389633    -0.40600
O307        O  0.44677156  0.49769853  0.02055932    -0.77200
O308        O  0.44729914  0.45779884  0.97850306    -0.95900
O309        O  0.50085306  0.42503992  0.00548923    -0.89200
O310        O  0.50045478  0.46957048  0.05080899    -0.92100
C311        C  0.48270014  0.55967155  0.92238854     1.01700
C312        C  0.55563766  0.56771256  0.01635332     1.14600
C313        C  0.55396621  0.46587191  0.90745670     1.05400
O314        O  0.46384506  0.42932182  0.90911858    -0.94200
O315        O  0.45640129  0.39699951  0.96119868    -0.90000
O316        O  0.43151865  0.40112467  0.00576932    -0.83100
C317        C  0.43583326  0.38808776  0.98071726     1.12000
O318        O  0.60499009  0.45838653  0.01984051    -0.96200
Zr319      Zr  0.54671008  0.44980684  0.02608841     1.88900
O320        O  0.47708941  0.40742615  0.06381074    -0.72800
O321        O  0.52712159  0.39275763  0.94867459    -0.52100
O322        O  0.57238794  0.40499601  0.00626757    -0.96800
O323        O  0.57528481  0.46304140  0.07151808    -0.54000
O324        O  0.53211141  0.41205638  0.06233196    -0.73400
C325        C  0.50591067  0.40005576  0.07229317     0.99000
O326        O  0.39763496  0.43179801  0.03901480    -0.62200
O327        O  0.46257158  0.56762888  0.04657741    -0.57000
O328        O  0.43316096  0.46746266  0.07558212    -0.93700
O329        O  0.45454360  0.51422579  0.07919534    -0.92100
O330        O  0.41440880  0.55510128  0.98783322    -0.92400
O331        O  0.38368760  0.50143046  0.97774828    -0.91200
C332        C  0.43571757  0.49318626  0.08811576     1.17800
H333        H  0.48646661  0.55625877  0.98683857     0.33800
H334        H  0.42790756  0.44829614  0.97095919     0.44600
H335        H  0.50170704  0.46616920  0.07188725     0.38200
H336        H  0.56120699  0.45462733  0.96522095     0.34600
H337        H  0.40221096  0.51761193  0.91758361     0.26400
H338        H  0.52340729  0.38639960  0.92799566     0.32400
H339        H  0.58121792  0.39436226  0.02375893     0.38300
H340        H  0.40871236  0.55024204  0.00859503     0.32700
H341        H  0.46963970  0.57564586  0.06591562     0.31600
H342        H  0.51690090  0.54624088  0.09464934     0.33300
H343        H  0.55953674  0.45938029  0.08772923     0.32300
H344        H  0.38299831  0.48851157  0.99559279     0.36200
H345        H  0.39726018  0.42218822  0.05879392     0.29000
H346        H  0.58869024  0.53757281  0.93297967     0.33200
H347        H  0.61591930  0.44238903  0.03136149     0.36100
H348        H  0.47147644  0.58187256  0.03182148     0.28700
H349        H  0.38599449  0.45103463  0.04157247     0.41500
H350        H  0.44114155  0.43478378  0.91414959     0.31600
H351        H  0.42949268  0.49470248  0.90906100     0.39200
H352        H  0.57743665  0.48510659  0.07066131     0.31100
H353        H  0.55000477  0.39971098  0.94891155     0.31100
H354        H  0.60239947  0.51296505  0.95472122     0.31400
C355        C  0.73197605  0.75274481  0.41345233     0.03500
C356        C  0.73206520  0.75157452  0.38236205    -0.12600
C357        C  0.75477509  0.73369097  0.36726016     0.01000
C358        C  0.77833720  0.71815099  0.38352944    -0.11200
C359        C  0.77884940  0.71960005  0.41439795     0.03500
C360        C  0.75537233  0.73651570  0.42943153    -0.10600
H361        H  0.71442592  0.76459280  0.36999503     0.09100
H362        H  0.79593339  0.70416009  0.37220225     0.06600
H363        H  0.75574324  0.73751484  0.45338524     0.06500
C364        C  0.77134544  0.73865829  0.09715788     0.03500
C365        C  0.77399461  0.73727701  0.12810435    -0.12600
C366        C  0.75334795  0.71876101  0.14482795     0.01000
C367        C  0.72994803  0.70141951  0.13024348    -0.11200
C368        C  0.72702953  0.70267961  0.09936754     0.03500
C369        C  0.74765708  0.72138345  0.08291011    -0.10600
H370        H  0.79222098  0.75068751  0.13922303     0.09100
H371        H  0.71327129  0.68761661  0.14293079     0.06600
H372        H  0.74508801  0.72260991  0.05907773     0.06500
C373        C  0.75498256  0.74892603  0.22280583    -0.01600
C374        C  0.75609851  0.72255840  0.23988952     0.07000
C375        C  0.75693760  0.69466235  0.22582066    -0.07600
C376        C  0.75656245  0.69279064  0.19486776     0.04400
C377        C  0.75485317  0.71926040  0.17763348    -0.14800
C378        C  0.75419965  0.74712544  0.19196440    -0.08200
C379        C  0.75632269  0.72399010  0.27254111     0.05300
C380        C  0.72690022  0.72069527  0.28791894    -0.09300
C381        C  0.72572366  0.72390789  0.31871163     0.00300
C382        C  0.75441028  0.73091707  0.33451362     0.00200
C383        C  0.78391073  0.73384707  0.31891773    -0.12800
C384        C  0.78506828  0.73034352  0.28821482     0.00700
C385        C  0.69509353  0.71879527  0.33360217     0.40000
C386        C  0.81595311  0.73345270  0.27321212     0.36600
C387        C  0.75456445  0.77802300  0.23662756     0.36300
C388        C  0.75904430  0.66360494  0.18139276     0.37100
N389        N  0.67062242  0.71476799  0.34569549    -0.43700
N390        N  0.84073924  0.73592862  0.26124896    -0.44200
N391        N  0.76101040  0.64023626  0.17055153    -0.41500
N392        N  0.75440711  0.80119689  0.24799018    -0.43000
H393        H  0.75273604  0.76757276  0.17901214     0.13200
H394        H  0.75818794  0.67439073  0.23905890     0.09700
H395        H  0.70480119  0.71572023  0.27577769     0.10800
H396        H  0.80613814  0.73905759  0.33075992     0.16600
C397        C  0.67953324  0.63475470  0.07580715    -0.01600
C398        C  0.65550144  0.64750082  0.05742280     0.07000
C399        C  0.65463453  0.67858763  0.05319938    -0.07600
C400        C  0.67770707  0.69704108  0.06665873     0.04400
C401        C  0.70233131  0.68420455  0.08439635    -0.14800
C402        C  0.70294609  0.65311218  0.08882490    -0.08200
C403        C  0.62957718  0.62899114  0.04427240     0.05300
C404        C  0.59772747  0.63260042  0.05468912    -0.09300
C405        C  0.57279420  0.61371645  0.04517673     0.00300
C406        C  0.57960626  0.59100501  0.02429528     0.00200
C407        C  0.61131769  0.58856014  0.01276157    -0.12800
C408        C  0.63631772  0.60708941  0.02278694     0.00700
C409        C  0.54078100  0.61810735  0.05765990     0.40000
C410        C  0.66884257  0.60251181  0.01148595     0.36600
C411        C  0.67953174  0.60319405  0.08289732     0.36300
C412        C  0.67458838  0.72906298  0.06315681     0.37100
N413        N  0.51535968  0.62188818  0.06805766    -0.43700
N414        N  0.69493935  0.59854003  0.00265013    -0.44200
N415        N  0.67189337  0.75471354  0.06039580    -0.41500
N416        N  0.67929622  0.57793359  0.08868211    -0.43000
H417        H  0.72150684  0.64323780  0.10285961     0.13200
H418        H  0.63554300  0.68844245  0.03975508     0.09700
H419        H  0.59260384  0.64959270  0.07115157     0.10800
H420        H  0.61706942  0.57113709  0.99694260     0.16600
C421        C  0.35636685  0.26242463  0.94324080    -0.01600
C422        C  0.34672578  0.29242750  0.94795210     0.07000
C423        C  0.31480926  0.30106664  0.94073547    -0.07600
C424        C  0.29298082  0.28059180  0.92827011     0.04400
C425        C  0.30297703  0.25093658  0.92285162    -0.14800
C426        C  0.33449988  0.24198268  0.93071699    -0.08200
C427        C  0.37028956  0.31564614  0.95790761     0.05300
C428        C  0.39750300  0.32163414  0.94015858    -0.09300
C429        C  0.41964684  0.34422656  0.94746067     0.00300
C430        C  0.41469733  0.36186578  0.97321565     0.00200
C431        C  0.38756466  0.35531079  0.99127410    -0.12800
C432        C  0.36544827  0.33262308  0.98378309     0.00700
C433        C  0.44692324  0.34853606  0.92768860     0.40000
C434        C  0.33799422  0.32715076  0.00302712     0.36600
C435        C  0.38851711  0.25210527  0.95117212     0.36300
C436        C  0.26074397  0.29060585  0.92022670     0.37100
N437        N  0.46864224  0.35188932  0.91167854    -0.43700
N438        N  0.31594763  0.32284483  0.01843108    -0.44200
N439        N  0.23487820  0.29838473  0.91359673    -0.41500
N440        N  0.41426456  0.24381459  0.95757872    -0.43000
H441        H  0.34219652  0.21915092  0.92654825     0.13200
H442        H  0.30728123  0.32410191  0.94395513     0.09700
H443        H  0.40118031  0.30881243  0.92008067     0.10800
H444        H  0.38307369  0.36833280  0.01106132     0.16600
C445        C  0.28490066  0.20597842  0.78057270    -0.01600
C446        C  0.25619480  0.21417190  0.76547345     0.07000
C447        C  0.22837497  0.22184531  0.78179333    -0.07600
C448        C  0.22879337  0.22153669  0.81274687     0.04400
C449        C  0.25742048  0.21310444  0.82791695    -0.14800
C450        C  0.28530814  0.20550602  0.81158262    -0.08200
C451        C  0.25465240  0.21543177  0.73267207     0.05300
C452        C  0.25734735  0.18888495  0.71644149    -0.09300
C453        C  0.25506348  0.18912454  0.68551038     0.00300
C454        C  0.24940020  0.21645147  0.67023203     0.00200
C455        C  0.24683021  0.24299314  0.68670673    -0.12800
C456        C  0.24979361  0.24270735  0.71755814     0.00700
C457        C  0.25838630  0.16088652  0.67033274     0.40000
C458        C  0.24942423  0.27081964  0.73321054     0.36600
C459        C  0.31444432  0.19897398  0.76470837     0.36300
C460        C  0.19996632  0.23114713  0.82837714     0.37100
N461        N  0.26165330  0.13816828  0.65845737    -0.43700
N462        N  0.24952407  0.29328316  0.74588233    -0.44200
N463        N  0.17685118  0.23899358  0.84079577    -0.41500
N464        N  0.33812830  0.19349622  0.75193098    -0.43000
H465        H  0.30742074  0.19916743  0.82310950     0.13200
H466        H  0.20633549  0.22837051  0.77024480     0.09700
H467        H  0.26114857  0.16786843  0.72804641     0.10800
H468        H  0.24349053  0.26421142  0.67536751     0.16600
C469        C  0.81664419  0.80881363  0.07544031    -0.01600
C470        C  0.83769784  0.79835972  0.05312379     0.07000
C471        C  0.83525293  0.76859424  0.04358776    -0.07600
C472        C  0.81273166  0.74897606  0.05665399     0.04400
C473        C  0.79287179  0.75906858  0.08017079    -0.14800
C474        C  0.79465362  0.78915197  0.08886085    -0.08200
C475        C  0.86400479  0.81767143  0.04134375     0.05300
C476        C  0.89536441  0.81445421  0.05304023    -0.09300
C477        C  0.92040762  0.83415784  0.04499345     0.00300
C478        C  0.91409171  0.85784141  0.02487077     0.00200
C479        C  0.88283560  0.86008865  0.01227906    -0.12800
C480        C  0.85789157  0.84033954  0.02039112     0.00700
C481        C  0.95230417  0.82879744  0.05726290     0.40000
C482        C  0.82605956  0.84416577  0.00743094     0.36600
C483        C  0.81780814  0.83942281  0.08552375     0.36300
C484        C  0.81125883  0.71845525  0.04628659     0.37100
N485        N  0.97761907  0.82368824  0.06728455    -0.43700
N486        N  0.80059717  0.84736434  0.99695834    -0.44200
N487        N  0.80961897  0.69405016  0.03789330    -0.41500
N488        N  0.81854728  0.86397327  0.09358025    -0.43000
H489        H  0.77906876  0.79720369  0.10652435     0.13200
H490        H  0.85136328  0.76058829  0.02630826     0.09700
H491        H  0.90010166  0.79677575  0.06899550     0.10800
H492        H  0.87742447  0.87801069  0.99681519     0.16600
C493        C  0.14316273  0.09847498  0.98380832    -0.01600
C494        C  0.13821978  0.12058554  0.96208747     0.07000
C495        C  0.10735328  0.12410479  0.94936998    -0.07600
C496        C  0.08162744  0.10510838  0.95723108     0.04400
C497        C  0.08676891  0.08211111  0.97833410    -0.14800
C498        C  0.11757064  0.07953573  0.99177494    -0.08200
C499        C  0.16549696  0.13873412  0.95059021     0.05300
C500        C  0.18712599  0.12545352  0.93060702    -0.09300
C501        C  0.21176435  0.14227380  0.91718727     0.00300
C502        C  0.21497098  0.17306428  0.92375270     0.00200
C503        C  0.19404132  0.18600163  0.94478830    -0.12800
C504        C  0.16937178  0.16903518  0.95821512     0.00700
C505        C  0.23331355  0.12739132  0.89669429     0.40000
C506        C  0.14841953  0.18288428  0.97988424     0.36600
C507        C  0.17432752  0.09470872  0.99808665     0.36300
C508        C  0.05046349  0.10982843  0.94321851     0.37100
N509        N  0.25041027  0.11544481  0.88013862    -0.43700
N510        N  0.13165709  0.19366615  0.99747543    -0.44200
N511        N  0.02559657  0.11375222  0.93183375    -0.41500
N512        N  0.19919352  0.09169899  0.00973108    -0.43000
H513        H  0.12214884  0.06199622  0.00788937     0.13200
H514        H  0.10362428  0.14128573  0.93268615     0.09700
H515        H  0.18428969  0.10198494  0.92505137     0.10800
H516        H  0.19637899  0.20956366  0.95008604     0.16600
C517        C  0.05771049  0.82203453  0.80253824    -0.01600
C518        C  0.03562764  0.81282672  0.82470166     0.07000
C519        C  0.02316433  0.78355616  0.82367495    -0.07600
C520        C  0.03331794  0.76319873  0.80180922     0.04400
C521        C  0.05663905  0.77191749  0.78033691    -0.14800
C522        C  0.06802503  0.80170393  0.78077726    -0.08200
C523        C  0.02716865  0.83278176  0.85016194     0.05300
C524        C  0.00908546  0.85907650  0.84527702    -0.09300
C525        C  0.00274438  0.87923036  0.86845839     0.00300
C526        C  0.01473072  0.87333566  0.89718133     0.00200
C527        C  0.03254236  0.84691862  0.90209412    -0.12800
C528        C  0.03861278  0.82665672  0.87902074     0.00700
C529        C  0.98567996  0.90670843  0.86187138     0.40000
C530        C  0.05785008  0.80029634  0.88515507     0.36600
C531        C  0.07116125  0.85191320  0.80254700     0.36300
C532        C  0.02092427  0.73300877  0.80319177     0.37100
N533        N  0.97221277  0.92885508  0.85661983    -0.43700
N534        N  0.07324922  0.77911388  0.88987774    -0.44200
N535        N  0.01084297  0.70884147  0.80436415    -0.41500
N536        N  0.08161924  0.87597136  0.80278633    -0.43000
H537        H  0.08582515  0.80889605  0.76449277     0.13200
H538        H  0.00612988  0.77631571  0.84060061     0.09700
H539        H  0.00047370  0.86414920  0.82314902     0.10800
H540        H  0.04211943  0.84229312  0.92399459     0.16600
C541        C  0.49960695  0.60681932  0.85344197    -0.01600
C542        C  0.47449303  0.62838849  0.85455702     0.07000
C543        C  0.45298619  0.62795875  0.87869771    -0.07600
C544        C  0.45544433  0.60619847  0.90101770     0.04400
C545        C  0.48002232  0.58398997  0.89966186    -0.14800
C546        C  0.50223856  0.58497585  0.87587620    -0.08200
C547        C  0.46820294  0.65024734  0.83002112     0.05300
C548        C  0.45903974  0.63938495  0.80212538    -0.09300
C549        C  0.44654278  0.65869325  0.78032279     0.00300
C550        C  0.44273992  0.68952320  0.78628096     0.00200
C551        C  0.45427099  0.70077495  0.81329538    -0.12800
C552        C  0.46703209  0.68145426  0.83504526     0.00700
C553        C  0.43721906  0.64624367  0.75216415     0.40000
C554        C  0.47834725  0.69395191  0.86259206     0.36600
C555        C  0.52339472  0.60719386  0.82991170     0.36300
C556        C  0.43245264  0.60757456  0.92515660     0.37100
N557        N  0.43004433  0.63610109  0.72957080    -0.43700
N558        N  0.48760709  0.70374041  0.88471001    -0.44200
N559        N  0.41383238  0.60882384  0.94434615    -0.41500
N560        N  0.54259035  0.60771483  0.81114973    -0.43000
H561        H  0.52140786  0.56833519  0.87451100     0.13200
H562        H  0.43358538  0.64440773  0.87976818     0.09700
H563        H  0.46015565  0.61552758  0.79785510     0.10800
H564        H  0.45204385  0.72450075  0.81788740     0.16600
C565        C  0.28262748  0.72647193  0.77157418    -0.01600
C566        C  0.26534164  0.72144459  0.74506866     0.07000
C567        C  0.28300905  0.71622846  0.71898925    -0.07600
C568        C  0.31727067  0.71656843  0.71888678     0.04400
C569        C  0.33467220  0.72237068  0.74525804    -0.14800
C570        C  0.31689894  0.72674359  0.77151891    -0.08200
C571        C  0.22894172  0.72257129  0.74388370     0.05300
C572        C  0.21349200  0.75013200  0.73870837    -0.09300
C573        C  0.17936280  0.75228450  0.73734429     0.00300
C574        C  0.15980180  0.72647411  0.74138297     0.00200
C575        C  0.17539443  0.69881876  0.74617655    -0.12800
C576        C  0.20954912  0.69670750  0.74741823     0.00700
C577        C  0.16506889  0.78109020  0.73077363     0.40000
C578        C  0.22414111  0.66775503  0.75244259     0.36600
C579        C  0.26570487  0.73185133  0.79903919     0.36300
C580        C  0.33395632  0.71001962  0.69156702     0.37100
N581        N  0.15349133  0.80412972  0.72553151    -0.43700
N582        N  0.23564969  0.64444126  0.75644177    -0.44200
N583        N  0.34707805  0.70456423  0.66957386    -0.41500
N584        N  0.25230552  0.73620168  0.82114766    -0.43000
H585        H  0.32984081  0.73110980  0.79195230     0.13200
H586        H  0.26994881  0.71204478  0.69857885     0.09700
H587        H  0.22821322  0.77004803  0.73555982     0.10800
H588        H  0.16081504  0.67881932  0.74936794     0.16600
C589        C  0.15568953  0.26580941  0.54118327    -0.01600
C590        C  0.15240485  0.29603883  0.54948103     0.07000
C591        C  0.17279304  0.30771186  0.57144465    -0.07600
C592        C  0.19599477  0.28964255  0.58549335     0.04400
C593        C  0.19896157  0.25914983  0.57770257    -0.14800
C594        C  0.17895946  0.24765789  0.55520775    -0.08200
C595        C  0.12676933  0.31570839  0.53695673     0.05300
C596        C  0.09512925  0.31357437  0.54838211    -0.09300
C597        C  0.07121716  0.33461483  0.54074625     0.00300
C598        C  0.07889561  0.35841162  0.52114866     0.00200
C599        C  0.11018818  0.35928330  0.50838066    -0.12800
C600        C  0.13406597  0.33834265  0.51622146     0.00700
C601        C  0.03916254  0.33102406  0.55339049     0.40000
C602        C  0.16606354  0.34099231  0.50321591     0.36600
C603        C  0.13554652  0.25306016  0.51832332     0.36300
C604        C  0.21720515  0.30315928  0.60711425     0.37100
N605        N  0.01356410  0.32786085  0.56365813    -0.43700
N606        N  0.19159387  0.34333650  0.49259765    -0.44200
N607        N  0.23432517  0.31390786  0.62439359    -0.41500
N608        N  0.11946452  0.24281150  0.49995695    -0.43000
H609        H  0.18126450  0.22435965  0.54886171     0.13200
H610        H  0.17036919  0.33101673  0.57776657     0.09700
H611        H  0.08942616  0.29594975  0.56413387     0.10800
H612        H  0.11657283  0.37713450  0.49312061     0.16600
C613        C  0.86059513  0.68904389  0.43652603    -0.01600
C614        C  0.85149848  0.66301271  0.45218965     0.07000
C615        C  0.81855184  0.65728456  0.45786720    -0.07600
C616        C  0.79446230  0.67626211  0.44671501     0.04400
C617        C  0.80341431  0.70193511  0.43047032    -0.14800
C618        C  0.83649619  0.70843334  0.42596136    -0.08200
C619        C  0.87528680  0.63940936  0.45952778     0.05300
C620        C  0.88380779  0.63446836  0.48913136    -0.09300
C621        C  0.90410954  0.61053641  0.49702059     0.00300
C622        C  0.91623492  0.59111209  0.47485625     0.00200
C623        C  0.90773781  0.59652551  0.44516768    -0.12800
C624        C  0.88726369  0.62019513  0.43743221     0.00700
C625        C  0.91222611  0.60675781  0.52788854     0.40000
C626        C  0.87758165  0.62340945  0.40685154     0.36600
C627        C  0.89429073  0.69544606  0.42987055     0.36300
C628        C  0.76086129  0.66721496  0.44932079     0.37100
N629        N  0.91870816  0.60361315  0.55261989    -0.43700
N630        N  0.86974011  0.62578945  0.38236996    -0.44200
N631        N  0.73395976  0.65971856  0.45088316    -0.41500
N632        N  0.92127568  0.70048089  0.42438693    -0.43000
H633        H  0.84337352  0.72793805  0.41301509     0.13200
H634        H  0.81161019  0.63687780  0.46933623     0.09700
H635        H  0.87422427  0.64914958  0.50611389     0.10800
H636        H  0.91630731  0.58166484  0.42789864     0.16600
C637        C  0.99670514  0.59688728  0.64642200    -0.01600
C638        C  0.01841915  0.62108508  0.64192813     0.07000
C639        C  0.03525840  0.62284919  0.61496982    -0.07600
C640        C  0.03150789  0.60097018  0.59302896     0.04400
C641        C  0.00959769  0.57682399  0.59716369    -0.14800
C642        C  0.99197921  0.57540455  0.62392930    -0.08200
C643        C  0.02628897  0.64365763  0.66544058     0.05300
C644        C  0.04340463  0.63433589  0.69072947    -0.09300
C645        C  0.05642245  0.65524135  0.71067490     0.00300
C646        C  0.05247093  0.68631853  0.70569920     0.00200
C647        C  0.03357524  0.69564840  0.68143517    -0.12800
C648        C  0.02070238  0.67468095  0.66132067     0.00700
C649        C  0.07434779  0.64432387  0.73595808     0.40000
C650        C  0.00242645  0.68549964  0.63619872     0.36600
C651        C  0.97928507  0.59354106  0.67399516     0.36300
C652        C  0.05093807  0.60383148  0.56655343     0.37100
N653        N  0.08875426  0.63578883  0.75629350    -0.43700
N654        N  0.98776397  0.69412464  0.61604564    -0.44200
N655        N  0.06692084  0.60615009  0.54557598    -0.41500
N656        N  0.96545728  0.59079612  0.69616961    -0.43000
H657        H  0.97537547  0.55690775  0.62772244     0.13200
H658        H  0.05236272  0.64101897  0.61141698     0.09700
H659        H  0.04788744  0.61065656  0.69421684     0.10800
H660        H  0.03013505  0.71938851  0.67741953     0.16600
C661        C  0.97022142  0.14279223  0.19261424    -0.01600
C662        C  0.96707214  0.14610497  0.16163979     0.07000
C663        C  0.95373863  0.17279333  0.15041651    -0.07600
C664        C  0.94209567  0.19519407  0.16950897     0.04400
C665        C  0.94387202  0.19125517  0.20052197    -0.14800
C666        C  0.95886669  0.16531084  0.21170670    -0.08200
C667        C  0.97409109  0.12072550  0.14099555     0.05300
C668        C  0.95416158  0.09529424  0.14240057    -0.09300
C669        C  0.95843285  0.07125214  0.12289272     0.00300
C670        C  0.98348170  0.07197094  0.10126733     0.00200
C671        C  0.00408514  0.09722148  0.10039553    -0.12800
C672        C  0.99928861  0.12161181  0.11971314     0.00700
C673        C  0.93688704  0.04592603  0.12612203     0.40000
C674        C  0.02024738  0.14743241  0.11719897     0.36600
C675        C  0.98428262  0.11602626  0.20523410     0.36300
C676        C  0.92797705  0.22189459  0.15680792     0.37100
N677        N  0.91938701  0.02582718  0.12900651    -0.43700
N678        N  0.03684657  0.16827758  0.11517707    -0.44200
N679        N  0.91673322  0.24334111  0.14663792    -0.41500
N680        N  0.99552988  0.09445296  0.21513227    -0.43000
H681        H  0.96031677  0.16199122  0.23545215     0.13200
H682        H  0.95120247  0.17560365  0.12668800     0.09700
H683        H  0.93473392  0.09441607  0.15867158     0.10800
H684        H  0.02329811  0.09836567  0.08395685     0.16600
C685        C  0.99340486  0.35480572  0.34876356    -0.01600
C686        C  0.97139176  0.33065373  0.35172251     0.07000
C687        C  0.95491636  0.32688542  0.37870970    -0.07600
C688        C  0.95921688  0.34710309  0.40212857     0.04400
C689        C  0.98070753  0.37171983  0.39899091    -0.14800
C690        C  0.99799926  0.37489781  0.37230040    -0.08200
C691        C  0.96396533  0.30970114  0.32682245     0.05300
C692        C  0.97164577  0.27911019  0.32961946    -0.09300
C693        C  0.96168159  0.25822706  0.30817535     0.00300
C694        C  0.94345332  0.26783356  0.28344165     0.00200
C695        C  0.93677205  0.29855426  0.28019862    -0.12800
C696        C  0.94671909  0.31937059  0.30153013     0.00700
C697        C  0.96872106  0.22694398  0.31300471     0.40000
C698        C  0.93714174  0.35027112  0.29791443     0.36600
C699        C  0.01154600  0.35949917  0.32178853     0.36300
C700        C  0.94178787  0.34156195  0.42936226     0.37100
N701        N  0.97445452  0.20190145  0.31709957    -0.43700
N702        N  0.92955479  0.37507400  0.29512057    -0.44200
N703        N  0.92782654  0.33678703  0.45112742    -0.41500
N704        N  0.02610949  0.36345725  0.30019367    -0.43000
H705        H  0.01447736  0.39366551  0.36948428     0.13200
H706        H  0.93810540  0.30832475  0.38129419     0.09700
H707        H  0.98465790  0.27141382  0.34907400     0.10800
H708        H  0.92246930  0.30614295  0.26144953     0.16600
C709        C  0.55027676  0.28234417  0.15039485    -0.01600
C710        C  0.53236048  0.30748756  0.15998502     0.07000
C711        C  0.52537139  0.31038992  0.19027141    -0.07600
C712        C  0.53682569  0.28927143  0.21096761     0.04400
C713        C  0.55606730  0.26480517  0.20153448    -0.14800
C714        C  0.56200041  0.26140772  0.17107842    -0.08200
C715        C  0.52349121  0.33217536  0.13905867     0.05300
C716        C  0.49778272  0.32844238  0.11888431    -0.09300
C717        C  0.49054236  0.35064676  0.09763855     0.00300
C718        C  0.51002723  0.37672678  0.09569617     0.00200
C719        C  0.53527642  0.38051435  0.11634339    -0.12800
C720        C  0.54158601  0.35898458  0.13820137     0.00700
C721        C  0.46380781  0.34558511  0.07755692     0.40000
C722        C  0.56658191  0.36510780  0.15976562     0.36600
C723        C  0.55849880  0.27846106  0.11958409     0.36300
C724        C  0.52998184  0.29407337  0.24192005     0.37100
N725        N  0.44224960  0.34155489  0.06159055    -0.43700
N726        N  0.58621364  0.37035554  0.17733700    -0.44200
N727        N  0.52442524  0.29769559  0.26675919    -0.41500
N728        N  0.56518906  0.27535901  0.09490487    -0.43000
H729        H  0.57674479  0.24279039  0.16351864     0.13200
H730        H  0.51175132  0.32970918  0.19784612     0.09700
H731        H  0.48350844  0.30803500  0.11962341     0.10800
H732        H  0.55001034  0.40066442  0.11564855     0.16600
C733        C  0.71308829  0.25411774  0.23272713    -0.01600
C734        C  0.73174547  0.22921975  0.24243563     0.07000
C735        C  0.71488407  0.20389230  0.25293036    -0.07600
C736        C  0.68077675  0.20230113  0.25220171     0.04400
C737        C  0.66213070  0.22771180  0.24383697    -0.14800
C738        C  0.67900778  0.25351750  0.23460609    -0.08200
C739        C  0.76847274  0.22909650  0.24189861     0.05300
C740        C  0.78559829  0.25440383  0.25174491    -0.09300
C741        C  0.81963750  0.25610170  0.25001821     0.00300
C742        C  0.83817447  0.23066430  0.24155859     0.00200
C743        C  0.82100002  0.20486652  0.23278137    -0.12800
C744        C  0.78683549  0.20429175  0.23171035     0.00700
C745        C  0.83418908  0.28507890  0.25500867     0.40000
C746        C  0.77155276  0.17834121  0.21875234     0.36600
C747        C  0.72778996  0.28030574  0.21948136     0.36300
C748        C  0.66604486  0.17350229  0.25798301     0.37100
N749        N  0.84552287  0.30846207  0.25887053    -0.43700
N750        N  0.75938581  0.15754420  0.20830381    -0.44200
N751        N  0.65430760  0.15034744  0.26236807    -0.41500
N752        N  0.73913729  0.30147965  0.20883588    -0.43000
H753        H  0.66556341  0.27341646  0.22830542     0.13200
H754        H  0.72840067  0.18475059  0.26112071     0.09700
H755        H  0.77229962  0.27349357  0.26022795     0.10800
H756        H  0.83418659  0.18492445  0.22631676     0.16600
C757        C  0.88652670  0.03709499  0.86327436    -0.01600
C758        C  0.86250286  0.01689989  0.85356934     0.07000
C759        C  0.86643629  0.98629231  0.85937012    -0.07600
C760        C  0.89263123  0.97583888  0.87646714     0.04400
C761        C  0.91531353  0.99641035  0.88861585    -0.14800
C762        C  0.91252091  0.02682086  0.88055052    -0.08200
C763        C  0.83294021  0.02749989  0.83775250     0.05300
C764        C  0.83007671  0.02231055  0.80731578    -0.09300
C765        C  0.80407100  0.03442357  0.79118636     0.00300
C766        C  0.78005062  0.05169367  0.80567256     0.00200
C767        C  0.78231615  0.05594768  0.83636709    -0.12800
C768        C  0.80840065  0.04386240  0.85246219     0.00700
C769        C  0.80393552  0.03086060  0.75943931     0.40000
C770        C  0.80969937  0.04856400  0.88403123     0.36600
C771        C  0.88467002  0.06862993  0.85629850     0.36300
C772        C  0.89556069  0.94390824  0.88063643     0.37100
N773        N  0.80372560  0.02833715  0.73396681    -0.43700
N774        N  0.81088092  0.05214296  0.90935401    -0.44200
N775        N  0.89782973  0.91822841  0.88341640    -0.41500
N776        N  0.88331182  0.09392188  0.85078789    -0.43000
H777        H  0.92984553  0.04306122  0.88882972     0.13200
H778        H  0.84855843  0.97057799  0.85102724     0.09700
H779        H  0.84892577  0.00980601  0.79594612     0.10800
H780        H  0.76402031  0.06921368  0.84763861     0.16600
C781        C  0.65649634  0.43755080  0.79556120    -0.01600
C782        C  0.65731294  0.43431103  0.82654987     0.07000
C783        C  0.68367067  0.41960037  0.83994005    -0.07600
C784        C  0.70837468  0.40690816  0.82271739     0.04400
C785        C  0.70672073  0.40890086  0.79160460    -0.14800
C786        C  0.68120944  0.42496843  0.77836767    -0.08200
C787        C  0.62994691  0.44440323  0.84527618     0.05300
C788        C  0.60070806  0.42827673  0.84456283    -0.09300
C789        C  0.57497142  0.43540293  0.86362320     0.00300
C790        C  0.57817443  0.45955422  0.88368622     0.00200
C791        C  0.60725166  0.47639178  0.88324817    -0.12800
C792        C  0.63314654  0.46871360  0.86468440     0.00700
C793        C  0.54604317  0.41709350  0.86230855     0.40000
C794        C  0.66316660  0.48542826  0.86665592     0.36600
C795        C  0.63022431  0.45311421  0.78091725     0.36300
C796        C  0.73509804  0.39201135  0.83736945     0.37100
N797        N  0.52293849  0.40230080  0.86137283    -0.43700
N798        N  0.68731463  0.49863792  0.86846056    -0.44200
N799        N  0.75656386  0.38018221  0.84915611    -0.41500
N800        N  0.60922497  0.46555375  0.76905195    -0.43000
H801        H  0.67982351  0.42652273  0.75444090     0.13200
H802        H  0.68443665  0.41734952  0.86383444     0.09700
H803        H  0.59839294  0.40944247  0.82961668     0.10800
H804        H  0.61059326  0.49482135  0.89847219     0.16600
C805        C  0.85774747  0.46088323  0.63165888    -0.01600
C806        C  0.86226370  0.43742884  0.65201748     0.07000
C807        C  0.89237450  0.42272089  0.65335983    -0.07600
C808        C  0.91749837  0.43005252  0.63364235     0.04400
C809        C  0.91252930  0.45258618  0.61197919    -0.14800
C810        C  0.88275818  0.46836172  0.61199361    -0.08200
C811        C  0.83555354  0.42732123  0.67159984     0.05300
C812        C  0.80883066  0.41230995  0.65921349    -0.09300
C813        C  0.78415388  0.40069957  0.67730720     0.00300
C814        C  0.78614813  0.40421011  0.70824680     0.00200
C815        C  0.81223385  0.42025914  0.72042824    -0.12800
C816        C  0.83688811  0.43176262  0.70237710     0.00700
C817        C  0.75709223  0.38529266  0.66380936     0.40000
C818        C  0.86328284  0.44812059  0.71581811     0.36600
C819        C  0.82752335  0.47739206  0.63055447     0.36300
C820        C  0.94789290  0.41405355  0.63638269     0.37100
N821        N  0.73533513  0.37284632  0.65323048    -0.43700
N822        N  0.88442383  0.46133667  0.72649814    -0.44200
N823        N  0.97211085  0.40104149  0.63885414    -0.41500
N824        N  0.80320868  0.49047280  0.62992199    -0.43000
H825        H  0.87836329  0.48591130  0.59585470     0.13200
H826        H  0.89597234  0.40498577  0.66949527     0.09700
H827        H  0.80762959  0.40918279  0.63545143     0.10800
H828        H  0.81384735  0.42300199  0.74422054     0.16600
C829        C  0.77044611  0.26188952  0.74216005    -0.01600
C830        C  0.74429252  0.24585499  0.75490881     0.07000
C831        C  0.71803629  0.26196878  0.76673300    -0.07600
C832        C  0.71628967  0.29308984  0.76436479     0.04400
C833        C  0.74311930  0.30948187  0.75291271    -0.14800
C834        C  0.77015481  0.29323263  0.74227722    -0.08200
C835        C  0.74325864  0.21246288  0.75626694     0.05300
C836        C  0.77027632  0.19644717  0.76681911    -0.09300
C837        C  0.76965292  0.16517191  0.76920478     0.00300
C838        C  0.74026021  0.14927268  0.76398333     0.00200
C839        C  0.71303394  0.16571142  0.75404228    -0.12800
C840        C  0.71491079  0.19644342  0.74853766     0.00700
C841        C  0.80015096  0.15037706  0.77542978     0.40000
C842        C  0.68792275  0.21068041  0.73352980     0.36600
C843        C  0.79744939  0.24698573  0.72794366     0.36300
C844        C  0.68560709  0.30680669  0.77210109     0.37100
N845        N  0.82466638  0.13862658  0.78042266    -0.43700
N846        N  0.66654682  0.22210965  0.72122582    -0.44200
N847        N  0.66084806  0.31743011  0.77837078    -0.41500
N848        N  0.81916583  0.23521052  0.71651535    -0.43000
H849        H  0.79135644  0.30487098  0.73382287     0.13200
H850        H  0.69802516  0.25003039  0.77709187     0.09700
H851        H  0.79224604  0.20834558  0.77292684     0.10800
H852        H  0.69002970  0.15464771  0.74997516     0.16600
C853        C  0.36941792  0.12279084  0.50718873    -0.01600
C854        C  0.37427163  0.14306995  0.53061354     0.07000
C855        C  0.40524340  0.14519878  0.54351757    -0.07600
C856        C  0.43056500  0.12616242  0.53479808     0.04400
C857        C  0.42475595  0.10380938  0.51330995    -0.14800
C858        C  0.39451259  0.10347686  0.49874940    -0.08200
C859        C  0.34677295  0.16024136  0.54360798     0.05300
C860        C  0.31991564  0.14434681  0.55487570    -0.09300
C861        C  0.29418138  0.15928339  0.56870164     0.00300
C862        C  0.29516042  0.19064953  0.57155743     0.00200
C863        C  0.32164433  0.20666823  0.56005922    -0.12800
C864        C  0.34746041  0.19174256  0.54622118     0.00700
C865        C  0.26708891  0.14206916  0.58002120     0.40000
C866        C  0.37430215  0.20924586  0.53495396     0.36600
C867        C  0.33859595  0.12073269  0.49200065     0.36300
C868        C  0.46206373  0.13011080  0.54840115     0.37100
N869        N  0.24526529  0.12842584  0.58906547    -0.43700
N870        N  0.39582466  0.22338746  0.52607616    -0.44200
N871        N  0.48727673  0.13359222  0.55925534    -0.41500
N872        N  0.31392132  0.11893204  0.47981043    -0.43000
H873        H  0.38965146  0.08692892  0.48183085     0.13200
H874        H  0.40934178  0.16103997  0.56125741     0.09700
H875        H  0.31936317  0.12011954  0.55336152     0.10800
H876        H  0.32249671  0.23079821  0.56257695     0.16600
C877        C  0.64335848  0.85289003  0.48892451    -0.01600
C878        C  0.63709835  0.83042862  0.46791946     0.07000
C879        C  0.60534272  0.82645941  0.45736993    -0.07600
C880        C  0.58024821  0.84574245  0.46596579     0.04400
C881        C  0.58697313  0.86972690  0.48544302    -0.14800
C882        C  0.61840774  0.87232892  0.49743743    -0.08200
C883        C  0.66325141  0.81123978  0.45583179     0.05300
C884        C  0.66319910  0.78064298  0.46274651    -0.09300
C885        C  0.68551836  0.76113858  0.44949531     0.00300
C886        C  0.70849068  0.77235751  0.42896770     0.00200
C887        C  0.70868326  0.80306114  0.42233148    -0.12800
C888        C  0.68628003  0.82250261  0.43546249     0.00700
C889        C  0.68284840  0.72960899  0.45603998     0.40000
C890        C  0.68651824  0.85359747  0.42662409     0.36600
C891        C  0.67506146  0.85637477  0.50217340     0.36300
C892        C  0.54802869  0.84020178  0.45442714     0.37100
N893        N  0.67995281  0.70442705  0.46150576    -0.43700
N894        N  0.68691535  0.87844055  0.41927189    -0.44200
N895        N  0.52233909  0.83545989  0.44505736    -0.41500
N896        N  0.70026850  0.85925726  0.51319895    -0.43000
H897        H  0.62395156  0.89033400  0.51265585     0.13200
H898        H  0.60035433  0.80864062  0.44176562     0.09700
H899        H  0.64509546  0.77189473  0.47799073     0.10800
H900        H  0.72617556  0.81179577  0.40650201     0.16600
C901        C  0.52978581  0.14695082  0.30200903    -0.01600
C902        C  0.53682092  0.15120583  0.33226053     0.07000
C903        C  0.55247317  0.17762781  0.34106366    -0.07600
C904        C  0.56253998  0.19896219  0.32014449     0.04400
C905        C  0.55710068  0.19403255  0.28967985    -0.18600
C906        C  0.53974497  0.16839912  0.28101352    -0.08200
C907        C  0.53205293  0.12687334  0.35448867     0.05300
C908        C  0.55965056  0.11194100  0.36513884    -0.09300
C909        C  0.55707961  0.08871042  0.38593806     0.00300
C910        C  0.52610014  0.08042507  0.39744423     0.00200
C911        C  0.49837691  0.09522232  0.38610561    -0.12800
C912        C  0.50111098  0.11807279  0.36480512     0.00700
C913        C  0.58683271  0.07357097  0.39411448     0.40000
C914        C  0.47187220  0.13252517  0.35431424     0.36600
C915        C  0.51469344  0.11965390  0.29190987     0.36300
C916        C  0.57938692  0.22535960  0.33031941     0.37100
N917        N  0.61083767  0.06149285  0.40026206    -0.43700
N918        N  0.44833163  0.14396313  0.34591998    -0.44200
N919        N  0.59299493  0.24652823  0.33828373    -0.41500
N920        N  0.50268214  0.09762535  0.28409876    -0.43000
H921        H  0.53582528  0.16418662  0.25767390     0.13200
H922        H  0.55796267  0.18102524  0.36427934     0.09700
H923        H  0.58345809  0.11827110  0.35676168     0.10800
H924        H  0.47433608  0.08926941  0.39410920     0.16600
C925        C  0.44685023  0.86555043  0.64438540    -0.01600
C926        C  0.46921632  0.84215271  0.64963324     0.07000
C927        C  0.49802167  0.84133092  0.63287550    -0.07600
C928        C  0.50454221  0.86310473  0.61097317     0.04400
C929        C  0.48198849  0.88660372  0.60553000    -0.14800
C930        C  0.45334547  0.88738095  0.62270189    -0.08200
C931        C  0.46135565  0.81718788  0.67071194     0.05300
C932        C  0.45066221  0.78969901  0.65929850    -0.09300
C933        C  0.43872334  0.76704682  0.67806168     0.00300
C934        C  0.43746711  0.77151468  0.70895681     0.00200
C935        C  0.44989765  0.79832937  0.72055689    -0.12800
C936        C  0.46175183  0.82108053  0.70173936     0.00700
C937        C  0.42765222  0.73936926  0.66514814     0.40000
C938        C  0.47389570  0.84836431  0.71467705     0.36600
C939        C  0.41639455  0.86698938  0.66030090     0.36300
C940        C  0.53337586  0.85936983  0.59305271     0.37100
N941        N  0.41892832  0.71708026  0.65488655    -0.43700
N942        N  0.48374723  0.87018535  0.72509189    -0.44200
N943        N  0.55630532  0.85614135  0.57849424    -0.41500
N944        N  0.39197336  0.86808417  0.67304577    -0.43000
H945        H  0.43563369  0.90500357  0.61899389     0.13200
H946        H  0.51508982  0.82313645  0.63639416     0.09700
H947        H  0.45059997  0.78631974  0.63554930     0.10800
H948        H  0.44939218  0.80187445  0.74427583     0.16600
C949        C  0.60273601  0.04791150  0.65137962    -0.01600
C950        C  0.61679954  0.02532965  0.66909875     0.07000
C951        C  0.60833826  0.99535642  0.66414241    -0.07600
C952        C  0.58698071  0.98756097  0.64123942     0.04400
C953        C  0.57429150  0.01004823  0.62229225    -0.14800
C954        C  0.58185561  0.04016501  0.62822011    -0.08200
C955        C  0.64116225  0.03274419  0.69218299     0.05300
C956        C  0.63150468  0.04985572  0.71662872    -0.09300
C957        C  0.65452492  0.06037736  0.73686168     0.00300
C958        C  0.68783300  0.05379829  0.73272726     0.00200
C959        C  0.69733618  0.03537961  0.70921828    -0.12800
C960        C  0.67426235  0.02480586  0.68896258     0.00700
C961        C  0.64360038  0.07816698  0.76160042     0.40000
C962        C  0.68527706  0.00721284  0.66416539     0.36600
C963        C  0.61038495  0.07914817  0.65579949     0.36300
C964        C  0.57762739  0.95652705  0.63852504     0.37100
N965        N  0.63509387  0.09233805  0.78155601    -0.43700
N966        N  0.69394504  0.99305026  0.64426638    -0.44200
N967        N  0.56988321  0.93169215  0.63664795    -0.41500
N968        N  0.61645024  0.10416391  0.65945880    -0.43000
H969        H  0.57230736  0.05778805  0.61411780     0.13200
H970        H  0.61852177  0.97801498  0.67821952     0.09700
H971        H  0.60604388  0.05566378  0.71941290     0.10800
H972        H  0.72293238  0.03039019  0.70595240     0.16600
C973        C  0.19656114  0.92558048  0.16772108    -0.01600
C974        C  0.16362416  0.92391959  0.17648140     0.07000
C975        C  0.15598191  0.91286553  0.20480504    -0.07600
C976        C  0.18065860  0.90263583  0.22386583     0.04400
C977        C  0.21343185  0.90316036  0.21449759    -0.14800
C978        C  0.22112442  0.91535871  0.18674398    -0.08200
C979        C  0.13704017  0.93069571  0.15511869     0.05300
C980        C  0.12557349  0.90748254  0.13723864    -0.09300
C981        C  0.10235984  0.91275176  0.11510674     0.00300
C982        C  0.09003249  0.94209088  0.11033036     0.00200
C983        C  0.10149163  0.96530135  0.12865044    -0.12800
C984        C  0.12467810  0.95981588  0.15088110     0.00700
C985        C  0.09293913  0.88750987  0.09722452     0.40000
C986        C  0.13582989  0.98445521  0.16875563     0.36600
C987        C  0.20559369  0.93640994  0.13873447     0.36300
C988        C  0.17213243  0.89178019  0.25299843     0.37100
N989        N  0.08601693  0.86668995  0.08343927    -0.43700
N990        N  0.14475173  0.00428026  0.18302227    -0.44200
N991        N  0.16585437  0.88323896  0.27653014    -0.41500
N992        N  0.21290530  0.94498131  0.11546872    -0.43000
H993        H  0.24629344  0.91579809  0.17946379     0.13200
H994        H  0.13072854  0.91158761  0.21171513     0.09700
H995        H  0.13537589  0.88511389  0.14025062     0.10800
H996        H  0.09234500  0.98788249  0.12562571     0.16600
C997        C  0.39880654  0.92006443  0.35713253    -0.01600
C998        C  0.38764511  0.94176638  0.33685558     0.07000
C999        C  0.39818980  0.97149593  0.33950785    -0.07600
C1000       C  0.41930532  0.97989143  0.36241361     0.04400
C1001       C  0.42965391  0.95829507  0.38337954    -0.14800
C1002       C  0.41974063  0.92838375  0.37994775    -0.08200
C1003       C  0.36346441  0.93374690  0.31396538     0.05300
C1004       C  0.33091638  0.94205953  0.31834290    -0.09300
C1005       C  0.30615362  0.93017113  0.30063883     0.00300
C1006       C  0.31407655  0.90993288  0.27775043     0.00200
C1007       C  0.34696943  0.90324127  0.27225506    -0.12800
C1008       C  0.37158702  0.91475793  0.29026313     0.00700
C1009       C  0.27284725  0.93718337  0.30814050     0.40000
C1010       C  0.40478532  0.90543055  0.28517578     0.36600
C1011       C  0.38778085  0.88937363  0.35581467     0.36300
C1012       C  0.43080647  0.01042839  0.36327040     0.37100
N1013       N  0.24628790  0.94299245  0.31448891    -0.43700
N1014       N  0.43137867  0.89777649  0.28138243    -0.44200
N1015       N  0.44029106  0.03481892  0.36386550    -0.41500
N1016       N  0.37880388  0.86484748  0.35467124    -0.43000
H1017       H  0.42737222  0.91152181  0.39582436     0.13200
H1018       H  0.38981248  0.98812796  0.32371666     0.09700
H1019       H  0.32466276  0.95640094  0.33682236     0.10800
H1020       H  0.35327911  0.88777924  0.25469999     0.16600
C1021       C  0.36160900  0.54427090  0.20865711    -0.01600
C1022       C  0.35102607  0.52647976  0.18486835     0.07000
C1023       C  0.31777713  0.52029518  0.18162408    -0.07600
C1024       C  0.29483371  0.53300687  0.20077865     0.04400
C1025       C  0.30526402  0.55227464  0.22360703    -0.14800
C1026       C  0.33873623  0.55706363  0.22776703    -0.08200
C1027       C  0.37360391  0.51770705  0.16088996     0.05300
C1028       C  0.38388245  0.48787112  0.15831737    -0.09300
C1029       C  0.40450568  0.47909473  0.13508105     0.00300
C1030       C  0.41463391  0.50043963  0.11378044     0.00200
C1031       C  0.40438732  0.53033694  0.11681438    -0.12800
C1032       C  0.38426262  0.53907914  0.14007644     0.00700
C1033       C  0.41574659  0.44848773  0.13430805     0.40000
C1034       C  0.37470301  0.57015788  0.14206059     0.36600
C1035       C  0.39574634  0.55047725  0.21310897     0.36300
C1036       C  0.26071602  0.52767716  0.19521108     0.37100
N1037       N  0.42480286  0.42395246  0.13388068    -0.43700
N1038       N  0.36725675  0.59508033  0.14382290    -0.44200
N1039       N  0.23336681  0.52340523  0.19078255    -0.41500
N1040       N  0.42315494  0.55533884  0.21651686    -0.43000
H1041       H  0.34692413  0.57155266  0.24546993     0.13200
H1042       H  0.30963828  0.50678327  0.16316201     0.09700
H1043       H  0.37595287  0.47152372  0.17459545     0.10800
H1044       H  0.41181905  0.54705105  0.10068799     0.16600
C1045       C  0.12624405  0.49008352  0.35339257    -0.01600
C1046       C  0.13857750  0.51952417  0.35232709     0.07000
C1047       C  0.12676819  0.54080642  0.37229964    -0.07600
C1048       C  0.10298147  0.53337899  0.39318274     0.04400
C1049       C  0.08979790  0.50409035  0.39391023    -0.14800
C1050       C  0.10195378  0.48262329  0.37403059    -0.08200
C1051       C  0.16310433  0.52948865  0.33026580     0.05300
C1052       C  0.15373364  0.55106585  0.30932893    -0.09300
C1053       C  0.17663202  0.56436772  0.29051557     0.00300
C1054       C  0.20982474  0.55640107  0.29276325     0.00200
C1055       C  0.21898287  0.53382326  0.31285396    -0.12800
C1056       C  0.19597500  0.52040830  0.33161543     0.00700
C1057       C  0.16535220  0.58586309  0.26889239     0.40000
C1058       C  0.20695539  0.49844242  0.35288568     0.36600
C1059       C  0.13791121  0.46732739  0.33343225     0.36300
C1060       C  0.09439178  0.55593719  0.41461835     0.37100
N1061       N  0.15635679  0.60311181  0.25156913    -0.43700
N1062       N  0.21590121  0.48074141  0.36978172    -0.44200
N1063       N  0.08849348  0.57443811  0.43166073    -0.41500
N1064       N  0.14749424  0.44900342  0.31761701    -0.43000
H1065       H  0.09227824  0.46003361  0.37445342     0.13200
H1066       H  0.13663802  0.56334470  0.37182223     0.09700
H1067       H  0.12843187  0.55793320  0.30809150     0.10800
H1068       H  0.24437848  0.52741472  0.31463408     0.16600
C1069       C  0.27401465  0.69745940  0.28437187    -0.01600
C1070       C  0.26782672  0.71420971  0.25844249     0.07000
C1071       C  0.25980320  0.69913692  0.23227569    -0.07600
C1072       C  0.25737138  0.66786348  0.23171595     0.04400
C1073       C  0.26317687  0.65109960  0.25772277    -0.14800
C1074       C  0.27143502  0.66615157  0.28386843    -0.08200
C1075       C  0.26863237  0.74747863  0.25800732     0.05300
C1076       C  0.29293321  0.76214343  0.24157287    -0.09300
C1077       C  0.29293592  0.79342539  0.23866219     0.00300
C1078       C  0.26801929  0.81045313  0.25205729     0.00200
C1079       C  0.24395712  0.79582388  0.26869340    -0.12800
C1080       C  0.24411724  0.76462340  0.27183820     0.00700
C1081       C  0.31798136  0.80744949  0.22095704     0.40000
C1082       C  0.21825318  0.75069889  0.28857111     0.36600
C1083       C  0.28367228  0.71184252  0.31151953     0.36300
C1084       C  0.24775474  0.65361618  0.20446922     0.37100
N1085       N  0.33802284  0.81863973  0.20669314    -0.43700
N1086       N  0.19744991  0.73973461  0.30206994    -0.44200
N1087       N  0.23992098  0.64237912  0.18257420    -0.41500
N1088       N  0.29149450  0.72327982  0.33331455    -0.43000
H1089       H  0.27625336  0.65335473  0.30383118     0.13200
H1090       H  0.25487861  0.71193583  0.21233191     0.09700
H1091       H  0.31166712  0.74905745  0.23068972     0.10800
H1092       H  0.22491583  0.80886859  0.27918482     0.16600
loop_ 
_geom_bond_atom_site_label_1 
_geom_bond_atom_site_label_2 
_geom_bond_distance 
_geom_bond_site_symmetry_2 
_ccdc_geom_bond_type 
C1            C2   1.404       .  A
C1            C6   1.408       .  A
C1         C1054   1.485       .  S
C2            C3   1.403       .  A
C2            H7   1.084       .  S
C3            C4   1.404       .  A
C3         C1025   1.481       .  S
C4            C5   1.401       .  A
C4            H8   1.084       .  S
C5            C6   1.402       .  A
C5         C1073   1.482       .  S
C6            H9   1.084       .  S
C10          C11   1.404       .  A
C10          C15   1.407       .  A
C10        C1006   1.483       .  S
C11          C12   1.398       .  A
C11          H16   1.084       .  S
C12          C13   1.403       .  A
C12        C1078   1.481       .  S
C13          C14   1.406       .  A
C13          H17   1.084       .  S
C14          C15   1.406       .  A
C14         C977   1.483       .  S
C15          H18   1.084       .  S
Zr19         O20   2.440       .  S
Zr19         O21   2.449       .  S
Zr19         O22   2.441       .  S
Zr19         O25   2.434       .  S
Zr19         O27   2.380       .  S
Zr19         O28   2.380       .  S
Zr19         O29   2.411   1_565  S
Zr19         O30   2.402       .  S
O20          H76   0.990       .  S
O20          H84   0.990       .  S
O21          C41   1.286       .  A
O22          C43   1.285   1_565  A
O23         Zr33   2.409       .  S
O23          C42   1.281       .  A
O24         Zr32   2.424       .  S
O24          C43   1.284       .  A
O25          C42   1.286       .  A
O26         Zr34   2.445       .  S
O26          C41   1.287       .  A
O27         Zr32   2.399   1_565  S
O27         Zr34   2.376       .  S
O28         Zr33   2.391       .  S
O28         Zr34   2.370       .  S
O28          H63   0.966       .  S
O29         Zr32   2.396       .  S
O29         Zr49   2.398       .  S
O29          H66   0.966       .  S
O30         Zr33   2.390       .  S
O30         Zr49   2.393   1_565  S
Zr31         O56   2.440       .  S
Zr31         O50   2.443       .  S
Zr31         O58   2.436   1_545  S
Zr31         O46   2.425       .  S
Zr31         O37   2.408   1_545  S
Zr31         O38   2.410       .  S
Zr31         O39   2.378       .  S
Zr31         O40   2.377   1_545  S
Zr32         O51   2.435       .  S
Zr32         O44   2.437       .  S
Zr32         O45   2.426       .  S
Zr32         O38   2.390       .  S
Zr32         O39   2.388       .  S
Zr33         O35   2.436       .  S
Zr33         O57   2.437       .  S
Zr33         O59   2.413       .  S
Zr33         O37   2.387       .  S
Zr33         O40   2.387       .  S
Zr34         O60   2.435       .  S
Zr34         O61   2.435       .  S
Zr34         O36   2.435       .  S
Zr34         O37   2.406       .  S
Zr34         O38   2.398   1_565  S
O35          H72   0.990       .  S
O36          H67   0.990       .  S
O36          H81   0.990       .  S
O38          H64   0.966       .  S
O39         Zr49   2.376       .  S
O40         Zr49   2.378   1_565  S
O40          H65   0.965       .  S
C41         C929   1.505       .  S
C42         C881   1.481       .  S
C43         C953   1.489       .  S
O44          H80   0.990       .  S
O45          C47   1.283       .  A
O46          C47   1.284       .  A
C47         C857   1.486       .  S
O48         Zr49   2.439       .  S
O48          H77   0.990       .  S
Zr49         O52   2.437       .  S
Zr49         O53   2.439   1_545  S
Zr49         O54   2.429       .  S
O50          C55   1.286       .  A
O51          H68   0.990       .  S
O51          H83   0.990       .  S
O52          H69   0.990       .  S
O53          H73   0.990       .  S
O53          H82   0.990       .  S
O54          C55   1.283       .  A
C55         C910   1.503       .  S
O56          H75   0.990       .  S
O56          H79   0.990       .  S
O57          H71   0.990       .  S
O57          H78   0.990       .  S
O58          C62   1.284       .  A
O59          C62   1.281       .  A
O60          H70   0.990       .  S
O61          H74   0.990       .  S
C62        C1001   1.483       .  S
C85          C86   1.401       .  A
C85          C90   1.397       .  A
C85         C785   1.476       .  S
C86          C87   1.408       .  A
C86          H91   1.080       .  S
C87          C88   1.409       .  A
C87         C833   1.500       .  S
C88          C89   1.402       .  A
C88          H92   1.082       .  S
C89          C90   1.398       .  A
C89         C814   1.476       .  S
C90          H93   1.084       .  S
C94          C95   1.404       .  A
C94          C99   1.405       .  A
C94         C766   1.484       .  S
C95          C96   1.400       .  A
C95         H100   1.084       .  S
C96          C97   1.399       .  A
C96         C958   1.477       .  S
C97          C98   1.407       .  A
C97         H101   1.082       .  S
C98          C99   1.410       .  A
C98         C838   1.503       .  S
C99         H102   1.080       .  S
C103        C104   1.404       .  A
C103        C108   1.408       .  A
C103        C905   1.490       .  S
C104        C105   1.405       .  A
C104        H109   1.082       .  S
C105        C106   1.411       .  A
C105        C737   1.506       .  S
C106        C107   1.409       .  A
C106        H110   1.083       .  S
C107        C108   1.411       .  A
C107        C713   1.497       .  S
C108        H111   1.083       .  S
C112        C113   1.409       .  A
C112        C117   1.403       .  A
C112        C694   1.492       .  S
C113        C114   1.411       .  A
C113        H118   1.083       .  S
C114        C115   1.409       .  A
C114        C665   1.494       .  S
C115        C116   1.411       .  A
C115        H119   1.083       .  S
C116        C117   1.407       .  A
C116        C742   1.509       .  S
C117        H120   1.081       .  S
Zr121       O122   2.441       .  S
Zr121       O123   2.463       .  S
Zr121       O124   2.438       .  S
Zr121       O127   2.446       .  S
Zr121       O129   2.380   1_455  S
Zr121       O130   2.379   1_455  S
Zr121       O131   2.418       .  S
Zr121       O132   2.402       .  S
O122        H178   0.990       .  S
O122        H186   0.990       .  S
O123        C143   1.288   1_455  A
O124        C145   1.284       .  A
O125       Zr135   2.422   1_455  S
O125        C144   1.283       .  A
O126       Zr134   2.433   1_455  S
O126        C145   1.284       .  A
O127        C144   1.287       .  A
O128       Zr136   2.423       .  S
O128        C143   1.281       .  A
O129       Zr134   2.401       .  S
O129       Zr136   2.379       .  S
O130       Zr135   2.393       .  S
O130       Zr136   2.378       .  S
O130        H165   0.967       .  S
O131       Zr134   2.403   1_455  S
O131       Zr151   2.400       .  S
O131        H168   0.965       .  S
O132       Zr135   2.388   1_455  S
O132       Zr151   2.398       .  S
Zr133       O158   2.441       .  S
Zr133       O152   2.462       .  S
Zr133       O160   2.432       .  S
Zr133       O148   2.418       .  S
Zr133       O139   2.407       .  S
Zr133       O140   2.409       .  S
Zr133       O141   2.377   1_655  S
Zr133       O142   2.375   1_655  S
Zr134       O153   2.436   1_655  S
Zr134       O146   2.435       .  S
Zr134       O147   2.443       .  S
Zr134       O140   2.395       .  S
Zr134       O141   2.395   1_655  S
Zr135       O137   2.433   1_655  S
Zr135       O159   2.438       .  S
Zr135       O161   2.416       .  S
Zr135       O139   2.390       .  S
Zr135       O142   2.395   1_655  S
Zr136       O162   2.436       .  S
Zr136       O163   2.436       .  S
Zr136       O138   2.435       .  S
Zr136       O139   2.400       .  S
Zr136       O140   2.395       .  S
O137        H174   0.990       .  S
O138        H169   0.990       .  S
O138        H183   0.990       .  S
O140        H166   0.966       .  S
O141       Zr151   2.373       .  S
O142       Zr151   2.374       .  S
O142        H167   0.966       .  S
C143        C689   1.494       .  S
C144       C1049   1.485       .  S
C145        C598   1.489       .  S
O146        H182   0.990       .  S
O147        C149   1.287       .  A
O148        C149   1.284       .  A
C149        C809   1.488       .  S
O150       Zr151   2.440       .  S
O150        H179   0.991       .  S
Zr151       O154   2.437       .  S
Zr151       O155   2.440       .  S
Zr151       O156   2.440       .  S
O152        C157   1.289   1_655  A
O153        H170   0.990       .  S
O153        H185   0.990       .  S
O154        H171   0.990       .  S
O155        H175   0.989       .  S
O155        H184   0.990       .  S
O156        C157   1.286       .  A
C157        C641   1.501       .  S
O158        H177   0.990       .  S
O158        H181   0.990       .  S
O159        H173   0.990       .  S
O159        H180   0.990       .  S
O160        C164   1.283       .  A
O161        C164   1.283       .  A
O162        H172   0.990       .  S
O163        H176   0.990       .  S
C164        C622   1.484       .  S
C187        C188   1.410       .  A
C187        C192   1.409       .  A
C187        C550   1.492       .  S
C188        C189   1.407       .  A
C188        H193   1.084       .  S
C189        C190   1.408       .  A
C189        C569   1.499       .  S
C190        C191   1.409       .  A
C190        H194   1.084       .  S
C191        C192   1.409       .  A
C191        C934   1.494       .  S
C192        H195   1.083       .  S
C196        C197   1.408       .  A
C196        C201   1.417       .  A
C196        C521   1.503       .  S
C197        C198   1.405       .  A
C197        H202   1.084       .  S
C198        C199   1.406       .  A
C198        C574   1.499       .  S
C199        C200   1.410       .  A
C199        H203   1.084       .  S
C200        C201   1.414       .  A
C200        C646   1.500       .  S
C201        H204   1.083       .  S
Zr205       O206   2.438       .  S
Zr205       O207   2.453       .  S
Zr205       O208   2.439       .  S
Zr205       O211   2.434       .  S
Zr205       O213   2.382   1_655  S
Zr205       O214   2.381   1_655  S
Zr205       O215   2.410       .  S
Zr205       O216   2.402   1_556  S
O206        H262   0.989       .  S
O206        H270   0.990       .  S
O207        C227   1.287   1_655  A
O208        C229   1.284       .  A
O209       Zr219   2.430   1_655  S
O209        C228   1.284       .  A
O210       Zr218   2.438       .  S
O210        C229   1.286   1_545  A
O211        C228   1.286   1_556  A
O212       Zr220   2.432       .  S
O212        C227   1.283       .  A
O213       Zr218   2.401   1_465  S
O213       Zr220   2.380       .  S
O214       Zr219   2.395   1_556  S
O214       Zr220   2.369       .  S
O214        H249   0.963       .  S
O215       Zr218   2.394   1_565  S
O215       Zr235   2.398   1_556  S
O215        H252   0.965       .  S
O216       Zr219   2.389   1_655  S
O216       Zr235   2.393       .  S
Zr217       O242   2.443       .  S
Zr217       O236   2.471       .  S
Zr217       O244   2.453   1_545  S
Zr217       O232   2.421       .  S
Zr217       O223   2.412   1_545  S
Zr217       O224   2.424   1_544  S
Zr217       O225   2.381   1_455  S
Zr217       O226   2.375   1_445  S
Zr218       O237   2.435       .  S
Zr218       O230   2.434   1_655  S
Zr218       O231   2.432   1_655  S
Zr218       O224   2.403   1_645  S
Zr218       O225   2.395   1_556  S
Zr219       O221   2.436   1_455  S
Zr219       O243   2.434       .  S
Zr219       O245   2.431       .  S
Zr219       O223   2.390       .  S
Zr219       O226   2.405   1_455  S
Zr220       O246   2.435       .  S
Zr220       O247   2.435       .  S
Zr220       O222   2.437       .  S
Zr220       O223   2.404   1_556  S
Zr220       O224   2.393       .  S
O221        H258   0.990       .  S
O222        H253   0.990       .  S
O222        H267   0.990       .  S
O224        H250   0.965   1_565  S
O225       Zr235   2.378   1_545  S
O226       Zr235   2.385       .  S
O226        H251   0.965       .  S
C227        C526   1.489       .  S
C228        C478   1.487       .  S
C229        C761   1.498       .  S
O230        H266   0.990       .  S
O231        C233   1.285       .  A
O232        C233   1.283   1_554  A
C233        C497   1.482       .  S
O234       Zr235   2.439       .  S
O234        H263   0.990   1_565  S
Zr235       O238   2.438   1_565  S
Zr235       O239   2.439       .  S
Zr235       O240   2.426   1_565  S
O236        C241   1.290   1_455  A
O237        H254   0.990       .  S
O237        H269   0.990       .  S
O238        H255   0.990       .  S
O239        H259   0.989       .  S
O239        H268   0.990       .  S
O240        C241   1.283       .  A
C241        C670   1.502       .  S
O242        H261   0.991       .  S
O242        H265   0.990       .  S
O243        H257   0.990       .  S
O243        H264   0.989       .  S
O244        C248   1.287       .  A
O245        C248   1.283       .  A
O246        H256   0.990   1_556  S
O247        H260   0.990       .  S
C248        C982   1.498       .  S
C271        C272   1.404       .  A
C271        C276   1.409       .  A
C271        C593   1.487       .  S
C272        C273   1.400       .  A
C272        H277   1.084       .  S
C273        C274   1.398       .  A
C273        C862   1.472       .  S
C274        C275   1.401       .  A
C274        H278   1.083       .  S
C275        C276   1.409       .  A
C275        C454   1.492       .  S
C276        H279   1.084       .  S
C280        C281   1.404       .  A
C280        C285   1.406       .  A
C280        C502   1.484       .  S
C281        C282   1.401       .  A
C281        H286   1.084       .  S
C282        C283   1.401       .  A
C282        C449   1.482       .  S
C283        C284   1.402       .  A
C283        H287   1.084       .  S
C284        C285   1.404       .  A
C284        C425   1.477       .  S
C285        H288   1.084       .  S
Zr289       O290   2.441       .  S
Zr289       O291   2.444       .  S
Zr289       O292   2.424       .  S
Zr289       O295   2.424       .  S
Zr289       O297   2.380       .  S
Zr289       O298   2.377       .  S
Zr289       O299   2.404       .  S
Zr289       O300   2.400   1_556  S
O290        H346   0.990       .  S
O290        H354   0.991       .  S
O291        C311   1.286       .  A
O292        C313   1.282       .  A
O293       Zr303   2.411       .  S
O293        C312   1.281       .  A
O294       Zr302   2.432       .  S
O294        C313   1.284       .  A
O295        C312   1.284   1_556  A
O296       Zr304   2.438       .  S
O296        C311   1.285       .  A
O297       Zr302   2.396       .  S
O297       Zr304   2.382       .  S
O298       Zr303   2.387   1_556  S
O298       Zr304   2.370       .  S
O298        H333   0.968       .  S
O299       Zr302   2.393       .  S
O299       Zr319   2.391   1_556  S
O299        H336   0.965       .  S
O300       Zr303   2.382       .  S
O300       Zr319   2.393       .  S
Zr301       O326   2.439       .  S
Zr301       O320   2.451       .  S
Zr301       O328   2.452       .  S
Zr301       O316   2.441       .  S
Zr301       O307   2.409       .  S
Zr301       O308   2.413   1_554  S
Zr301       O309   2.381       .  S
Zr301       O310   2.381       .  S
Zr302       O321   2.437       .  S
Zr302       O314   2.435       .  S
Zr302       O315   2.425       .  S
Zr302       O308   2.394       .  S
Zr302       O309   2.393   1_556  S
Zr303       O305   2.435       .  S
Zr303       O327   2.437       .  S
Zr303       O329   2.402       .  S
Zr303       O307   2.386       .  S
Zr303       O310   2.388       .  S
Zr304       O330   2.436       .  S
Zr304       O331   2.436       .  S
Zr304       O306   2.436       .  S
Zr304       O307   2.398   1_556  S
Zr304       O308   2.399       .  S
O305        H342   0.990       .  S
O306        H337   0.990       .  S
O306        H351   0.990       .  S
O308        H334   0.966       .  S
O309       Zr319   2.377       .  S
O310       Zr319   2.374       .  S
O310        H335   0.966       .  S
C311        C545   1.496       .  S
C312        C406   1.478       .  S
C313        C790   1.491       .  S
O314        H350   0.990       .  S
O315        C317   1.283       .  A
O316        C317   1.287   1_554  A
C317        C430   1.498       .  S
O318       Zr319   2.440       .  S
O318        H347   0.990       .  S
Zr319       O322   2.435       .  S
Zr319       O323   2.441       .  S
Zr319       O324   2.421       .  S
O320        C325   1.287       .  A
O321        H338   0.990       .  S
O321        H353   0.990       .  S
O322        H339   0.990       .  S
O323        H343   0.990       .  S
O323        H352   0.990       .  S
O324        C325   1.283       .  A
C325        C718   1.492       .  S
O326        H345   0.990       .  S
O326        H349   0.990       .  S
O327        H341   0.990       .  S
O327        H348   0.990       .  S
O328        C332   1.287       .  A
O329        C332   1.281       .  A
O330        H340   0.990   1_556  S
O331        H344   0.990       .  S
C332       C1030   1.483       .  S
C355        C356   1.406       .  A
C355        C360   1.403       .  A
C355        C886   1.481       .  S
C356        C357   1.406       .  A
C356        H361   1.083       .  S
C357        C358   1.399       .  A
C357        C382   1.486       .  S
C358        C359   1.397       .  A
C358        H362   1.084       .  S
C359        C360   1.401       .  A
C359        C617   1.472       .  S
C360        H363   1.084       .  S
C364        C365   1.404       .  A
C364        C369   1.401       .  A
C364        C473   1.482       .  S
C365        C366   1.403       .  A
C365        H370   1.084       .  S
C366        C367   1.401       .  A
C366        C377   1.484       .  S
C367        C368   1.402       .  A
C367        H371   1.084       .  S
C368        C369   1.401       .  A
C368        C401   1.474       .  S
C369        H372   1.084       .  S
C373        C374   1.407       .  A
C373        C378   1.397       .  A
C373        C387   1.444       .  S
C374        C375   1.401       .  A
C374        C379   1.477       .  S
C375        C376   1.402       .  A
C375        H394   1.085       .  S
C376        C377   1.415       .  A
C376        C388   1.444       .  S
C377        C378   1.405       .  A
C378        H393   1.085       .  S
C379        C380   1.401       .  A
C379        C384   1.407       .  A
C380        C381   1.400       .  A
C380        H395   1.085       .  S
C381        C382   1.414       .  A
C381        C385   1.444       .  S
C382        C383   1.407       .  A
C383        C384   1.398       .  A
C383        H396   1.085       .  S
C384        C386   1.444       .  S
C385        N389   1.157       .  T
C386        N390   1.157       .  T
C387        N392   1.157       .  T
C388        N391   1.157       .  T
C397        C398   1.410       .  A
C397        C402   1.396       .  A
C397        C411   1.444       .  S
C398        C399   1.401       .  A
C398        C403   1.475       .  S
C399        C400   1.397       .  A
C399        H418   1.085       .  S
C400        C401   1.412       .  A
C400        C412   1.444       .  S
C401        C402   1.403       .  A
C402        H417   1.085       .  S
C403        C404   1.399       .  A
C403        C408   1.408       .  A
C404        C405   1.396       .  A
C404        H419   1.085       .  S
C405        C406   1.416       .  A
C405        C409   1.444       .  S
C406        C407   1.407       .  A
C407        C408   1.396       .  A
C407        H420   1.084   1_554  S
C408        C410   1.444       .  S
C409        N413   1.157       .  T
C410        N414   1.157       .  T
C411        N416   1.157       .  T
C412        N415   1.157       .  T
C421        C422   1.414       .  A
C421        C426   1.402       .  A
C421        C435   1.444       .  S
C422        C423   1.405       .  A
C422        C427   1.490       .  S
C423        C424   1.401       .  A
C423        H442   1.084       .  S
C424        C425   1.409       .  A
C424        C436   1.444       .  S
C425        C426   1.401       .  A
C426        H441   1.085       .  S
C427        C428   1.400       .  A
C427        C432   1.410       .  A
C428        C429   1.399       .  A
C428        H443   1.085       .  S
C429        C430   1.422       .  A
C429        C433   1.445       .  S
C430        C431   1.411       .  A
C431        C432   1.404       .  A
C431        H444   1.084   1_556  S
C432        C434   1.444   1_556  S
C433        N437   1.157       .  T
C434        N438   1.157       .  T
C435        N440   1.157       .  T
C436        N439   1.157       .  T
C445        C446   1.411       .  A
C445        C450   1.402       .  A
C445        C459   1.444       .  S
C446        C447   1.402       .  A
C446        C451   1.485       .  S
C447        C448   1.399       .  A
C447        H466   1.085       .  S
C448        C449   1.412       .  A
C448        C460   1.444       .  S
C449        C450   1.404       .  A
C450        H465   1.085       .  S
C451        C452   1.401       .  A
C451        C456   1.409       .  A
C452        C453   1.401       .  A
C452        H467   1.085       .  S
C453        C454   1.419       .  A
C453        C457   1.444       .  S
C454        C455   1.406       .  A
C455        C456   1.400       .  A
C455        H468   1.084       .  S
C456        C458   1.444       .  S
C457        N461   1.157       .  T
C458        N462   1.157       .  T
C459        N464   1.157       .  T
C460        N463   1.157       .  T
C469        C470   1.409       .  A
C469        C474   1.396       .  A
C469        C483   1.443       .  S
C470        C471   1.403       .  A
C470        C475   1.480       .  S
C471        C472   1.403       .  A
C471        H490   1.085       .  S
C472        C473   1.414       .  A
C472        C484   1.444       .  S
C473        C474   1.403       .  A
C474        H489   1.085       .  S
C475        C476   1.400       .  A
C475        C480   1.407       .  A
C476        C477   1.401       .  A
C476        H491   1.085       .  S
C477        C478   1.417       .  A
C477        C481   1.443       .  S
C478        C479   1.408       .  A
C479        C480   1.400       .  A
C479        H492   1.084   1_554  S
C480        C482   1.443       .  S
C481        N485   1.157       .  T
C482        N486   1.157   1_554  T
C483        N488   1.157       .  T
C484        N487   1.157       .  T
C493        C494   1.405       .  A
C493        C498   1.395       .  A
C493        C507   1.444       .  S
C494        C495   1.401       .  A
C494        C499   1.476       .  S
C495        C496   1.400       .  A
C495        H514   1.085       .  S
C496        C497   1.415       .  A
C496        C508   1.444       .  S
C497        C498   1.409       .  A
C498        H513   1.084   1_556  S
C499        C500   1.399       .  A
C499        C504   1.407       .  A
C500        C501   1.397       .  A
C500        H515   1.085       .  S
C501        C502   1.414       .  A
C501        C505   1.444       .  S
C502        C503   1.407       .  A
C503        C504   1.402       .  A
C503        H516   1.084       .  S
C504        C506   1.444       .  S
C505        N509   1.157       .  T
C506        N510   1.157       .  T
C507        N512   1.157   1_556  T
C508        N511   1.157       .  T
C517        C518   1.411       .  A
C517        C522   1.406       .  A
C517        C531   1.444       .  S
C518        C519   1.405       .  A
C518        C523   1.499       .  S
C519        C520   1.408       .  A
C519        H538   1.085       .  S
C520        C521   1.416       .  A
C520        C532   1.443       .  S
C521        C522   1.410       .  A
C522        H537   1.085       .  S
C523        C524   1.406       .  A
C523        C528   1.413       .  A
C524        C525   1.408       .  A
C524        H539   1.084       .  S
C525        C526   1.413       .  A
C525        C529   1.443   1_455  S
C526        C527   1.405       .  A
C527        C528   1.405       .  A
C527        H540   1.085       .  S
C528        C530   1.444       .  S
C529        N533   1.157       .  T
C530        N534   1.157       .  T
C531        N536   1.157       .  T
C532        N535   1.157       .  T
C541        C542   1.412       .  A
C541        C546   1.409       .  A
C541        C555   1.443       .  S
C542        C543   1.403       .  A
C542        C547   1.497       .  S
C543        C544   1.402       .  A
C543        H562   1.085       .  S
C544        C545   1.417       .  A
C544        C556   1.443       .  S
C545        C546   1.410       .  A
C546        H561   1.084       .  S
C547        C548   1.404       .  A
C547        C552   1.414       .  A
C548        C549   1.405       .  A
C548        H563   1.085       .  S
C549        C550   1.413       .  A
C549        C553   1.443       .  S
C550        C551   1.405       .  A
C551        C552   1.407       .  A
C551        H564   1.084       .  S
C552        C554   1.444       .  S
C553        N557   1.157       .  T
C554        N558   1.157       .  T
C555        N560   1.157       .  T
C556        N559   1.157       .  T
C565        C566   1.412       .  A
C565        C570   1.408       .  A
C565        C579   1.443       .  S
C566        C567   1.404       .  A
C566        C571   1.497       .  S
C567        C568   1.407       .  A
C567        H586   1.085       .  S
C568        C569   1.415       .  A
C568        C580   1.442       .  S
C569        C570   1.407       .  A
C570        H585   1.084       .  S
C571        C572   1.404       .  A
C571        C576   1.412       .  A
C572        C573   1.407       .  A
C572        H587   1.085       .  S
C573        C574   1.416       .  A
C573        C577   1.444       .  S
C574        C575   1.407       .  A
C575        C576   1.407       .  A
C575        H588   1.085       .  S
C576        C578   1.443       .  S
C577        N581   1.157       .  T
C578        N582   1.157       .  T
C579        N584   1.157       .  T
C580        N583   1.157       .  T
C589        C590   1.409       .  A
C589        C594   1.404       .  A
C589        C603   1.443       .  S
C590        C591   1.402       .  A
C590        C595   1.483       .  S
C591        C592   1.400       .  A
C591        H610   1.085       .  S
C592        C593   1.413       .  A
C592        C604   1.444       .  S
C593        C594   1.407       .  A
C594        H609   1.084       .  S
C595        C596   1.401       .  A
C595        C600   1.408       .  A
C596        C597   1.402       .  A
C596        H611   1.085       .  S
C597        C598   1.416       .  A
C597        C601   1.443       .  S
C598        C599   1.409       .  A
C599        C600   1.400       .  A
C599        H612   1.084       .  S
C600        C602   1.444       .  S
C601        N605   1.157       .  T
C602        N606   1.157       .  T
C603        N608   1.157       .  T
C604        N607   1.157       .  T
C613        C614   1.409       .  A
C613        C618   1.398       .  A
C613        C627   1.444       .  S
C614        C615   1.400       .  A
C614        C619   1.474       .  S
C615        C616   1.396       .  A
C615        H634   1.085       .  S
C616        C617   1.408       .  A
C616        C628   1.443       .  S
C617        C618   1.404       .  A
C618        H633   1.085       .  S
C619        C620   1.400       .  A
C619        C624   1.407       .  A
C620        C621   1.401       .  A
C620        H635   1.085       .  S
C621        C622   1.417       .  A
C621        C625   1.444       .  S
C622        C623   1.407       .  A
C623        C624   1.395       .  A
C623        H636   1.085       .  S
C624        C626   1.445       .  S
C625        N629   1.157       .  T
C626        N630   1.157       .  T
C627        N632   1.157       .  T
C628        N631   1.157       .  T
C637        C638   1.415   1_655  A
C637        C642   1.414       .  A
C637        C651   1.444       .  S
C638        C639   1.402       .  A
C638        C643   1.503       .  S
C639        C640   1.403       .  A
C639        H658   1.085       .  S
C640        C641   1.416       .  A
C640        C652   1.443       .  S
C641        C642   1.410   1_455  A
C642        H657   1.084       .  S
C643        C644   1.404       .  A
C643        C648   1.416       .  A
C644        C645   1.406       .  A
C644        H659   1.084       .  S
C645        C646   1.415       .  A
C645        C649   1.443       .  S
C646        C647   1.406       .  A
C647        C648   1.411       .  A
C647        H660   1.084       .  S
C648        C650   1.444       .  S
C649        N653   1.157       .  T
C650        N654   1.157   1_455  T
C651        N656   1.157       .  T
C652        N655   1.157       .  T
C661        C662   1.413       .  A
C661        C666   1.407       .  A
C661        C675   1.443       .  S
C662        C663   1.405       .  A
C662        C667   1.499       .  S
C663        C664   1.407       .  A
C663        H682   1.084       .  S
C664        C665   1.414       .  A
C664        C676   1.443       .  S
C665        C666   1.405       .  A
C666        H681   1.085       .  S
C667        C668   1.401       .  A
C667        C672   1.412       .  A
C668        C669   1.403       .  A
C668        H683   1.085       .  S
C669        C670   1.418       .  A
C669        C673   1.443       .  S
C670        C671   1.411   1_655  A
C671        C672   1.412   1_455  A
C671        H684   1.084       .  S
C672        C674   1.443   1_655  S
C673        N677   1.157       .  T
C674        N678   1.157       .  T
C675        N680   1.157       .  T
C676        N679   1.157       .  T
C685        C686   1.414       .  A
C685        C690   1.407       .  A
C685        C699   1.443   1_655  S
C686        C687   1.404       .  A
C686        C691   1.498       .  S
C687        C688   1.405       .  A
C687        H706   1.085       .  S
C688        C689   1.417       .  A
C688        C700   1.444       .  S
C689        C690   1.406       .  A
C690        H705   1.085   1_655  S
C691        C692   1.407       .  A
C691        C696   1.412       .  A
C692        C693   1.409       .  A
C692        H707   1.084       .  S
C693        C694   1.412       .  A
C693        C697   1.443       .  S
C694        C695   1.406       .  A
C695        C696   1.403       .  A
C695        H708   1.085       .  S
C696        C698   1.444       .  S
C697        N701   1.157       .  T
C698        N702   1.157       .  T
C699        N704   1.157       .  T
C700        N703   1.157       .  T
C709        C710   1.412       .  A
C709        C714   1.405       .  A
C709        C723   1.444       .  S
C710        C711   1.405       .  A
C710        C715   1.495       .  S
C711        C712   1.407       .  A
C711        H730   1.085       .  S
C712        C713   1.415       .  A
C712        C724   1.443       .  S
C713        C714   1.406       .  A
C714        H729   1.085       .  S
C715        C716   1.406       .  A
C715        C720   1.410       .  A
C716        C717   1.410       .  A
C716        H731   1.084       .  S
C717        C718   1.416       .  A
C717        C721   1.444       .  S
C718        C719   1.407       .  A
C719        C720   1.400       .  A
C719        H732   1.085       .  S
C720        C722   1.443       .  S
C721        N725   1.158       .  T
C722        N726   1.157       .  T
C723        N728   1.157       .  T
C724        N727   1.157       .  T
C733        C734   1.419       .  A
C733        C738   1.403       .  A
C733        C747   1.444       .  S
C734        C735   1.407       .  A
C734        C739   1.509       .  S
C735        C736   1.403       .  A
C735        H754   1.084       .  S
C736        C737   1.419       .  A
C736        C748   1.444       .  S
C737        C738   1.407       .  A
C738        H753   1.084       .  S
C739        C740   1.405       .  A
C739        C744   1.418       .  A
C740        C741   1.402       .  A
C740        H755   1.084       .  S
C741        C742   1.421       .  A
C741        C745   1.444       .  S
C742        C743   1.410       .  A
C743        C744   1.404       .  A
C743        H756   1.083       .  S
C744        C746   1.445       .  S
C745        N749   1.157       .  T
C746        N750   1.157       .  T
C747        N752   1.157       .  T
C748        N751   1.157       .  T
C757        C758   1.409       .  A
C757        C762   1.400       .  A
C757        C771   1.444       .  S
C758        C759   1.400   1_545  A
C758        C763   1.486       .  S
C759        C760   1.404       .  A
C759        H778   1.085       .  S
C760        C761   1.421       .  A
C760        C772   1.443       .  S
C761        C762   1.410   1_565  A
C762        H777   1.084       .  S
C763        C764   1.401       .  A
C763        C768   1.412       .  A
C764        C765   1.401       .  A
C764        H779   1.085       .  S
C765        C766   1.414       .  A
C765        C769   1.444       .  S
C766        C767   1.404       .  A
C767        C768   1.403       .  A
C767        H780   1.085       .  S
C768        C770   1.444       .  S
C769        N773   1.157       .  T
C770        N774   1.157       .  T
C771        N776   1.157       .  T
C772        N775   1.157       .  T
C781        C782   1.408       .  A
C781        C786   1.397       .  A
C781        C795   1.444       .  S
C782        C783   1.403       .  A
C782        C787   1.478       .  S
C783        C784   1.399       .  A
C783        H802   1.085       .  S
C784        C785   1.410       .  A
C784        C796   1.444       .  S
C785        C786   1.403       .  A
C786        H801   1.085       .  S
C787        C788   1.401       .  A
C787        C792   1.405       .  A
C788        C789   1.400       .  A
C788        H803   1.085       .  S
C789        C790   1.418       .  A
C789        C793   1.444       .  S
C790        C791   1.412       .  A
C791        C792   1.397       .  A
C791        H804   1.084       .  S
C792        C794   1.445       .  S
C793        N797   1.157       .  T
C794        N798   1.157       .  T
C795        N800   1.157       .  T
C796        N799   1.157       .  T
C805        C806   1.404       .  A
C805        C810   1.397       .  A
C805        C819   1.445       .  S
C806        C807   1.402       .  A
C806        C811   1.478       .  S
C807        C808   1.401       .  A
C807        H826   1.085       .  S
C808        C809   1.416       .  A
C808        C820   1.444       .  S
C809        C810   1.411       .  A
C810        H825   1.084       .  S
C811        C812   1.404       .  A
C811        C816   1.407       .  A
C812        C813   1.400       .  A
C812        H827   1.085       .  S
C813        C814   1.410       .  A
C813        C817   1.444       .  S
C814        C815   1.403       .  A
C815        C816   1.396       .  A
C815        H828   1.085       .  S
C816        C818   1.443       .  S
C817        N821   1.157       .  T
C818        N822   1.157       .  T
C819        N824   1.157       .  T
C820        N823   1.157       .  T
C829        C830   1.412       .  A
C829        C834   1.400       .  A
C829        C843   1.445       .  S
C830        C831   1.403       .  A
C830        C835   1.493       .  S
C831        C832   1.396       .  A
C831        H850   1.085       .  S
C832        C833   1.419       .  A
C832        C844   1.444       .  S
C833        C834   1.411       .  A
C834        H849   1.083       .  S
C835        C836   1.403       .  A
C835        C840   1.412       .  A
C836        C837   1.401       .  A
C836        H851   1.084       .  S
C837        C838   1.421       .  A
C837        C841   1.444       .  S
C838        C839   1.411       .  A
C839        C840   1.396       .  A
C839        H852   1.083       .  S
C840        C842   1.446       .  S
C841        N845   1.157       .  T
C842        N846   1.157       .  T
C843        N848   1.157       .  T
C844        N847   1.157       .  T
C853        C854   1.410       .  A
C853        C858   1.398       .  A
C853        C867   1.444       .  S
C854        C855   1.404       .  A
C854        C859   1.487       .  S
C855        C856   1.400       .  A
C855        H874   1.085       .  S
C856        C857   1.416       .  A
C856        C868   1.444       .  S
C857        C858   1.407       .  A
C858        H873   1.084       .  S
C859        C860   1.406       .  A
C859        C864   1.413       .  A
C860        C861   1.398       .  A
C860        H875   1.085       .  S
C861        C862   1.408       .  A
C861        C865   1.445       .  S
C862        C863   1.401       .  A
C863        C864   1.400       .  A
C863        H876   1.085       .  S
C864        C866   1.443       .  S
C865        N869   1.157       .  T
C866        N870   1.157       .  T
C867        N872   1.157       .  T
C868        N871   1.157       .  T
C877        C878   1.408       .  A
C877        C882   1.398       .  A
C877        C891   1.443       .  S
C878        C879   1.401       .  A
C878        C883   1.479       .  S
C879        C880   1.399       .  A
C879        H898   1.085       .  S
C880        C881   1.416       .  A
C880        C892   1.445       .  S
C881        C882   1.406       .  A
C882        H897   1.085       .  S
C883        C884   1.401       .  A
C883        C888   1.411       .  A
C884        C885   1.400       .  A
C884        H899   1.085       .  S
C885        C886   1.413       .  A
C885        C889   1.442       .  S
C886        C887   1.403       .  A
C887        C888   1.398       .  A
C887        H900   1.085       .  S
C888        C890   1.444       .  S
C889        N893   1.157       .  T
C890        N894   1.157       .  T
C891        N896   1.157       .  T
C892        N895   1.157       .  T
C901        C902   1.411       .  A
C901        C906   1.406       .  A
C901        C915   1.444       .  S
C902        C903   1.403       .  A
C902        C907   1.490       .  S
C903        C904   1.402       .  A
C903        H922   1.085       .  S
C904        C905   1.413       .  A
C904        C916   1.444       .  S
C905        C906   1.406       .  A
C906        H921   1.084       .  S
C907        C908   1.400       .  A
C907        C912   1.409       .  A
C908        C909   1.401       .  A
C908        H923   1.085       .  S
C909        C910   1.423       .  A
C909        C913   1.444       .  S
C910        C911   1.412       .  A
C911        C912   1.405       .  A
C911        H924   1.084       .  S
C912        C914   1.443       .  S
C913        N917   1.157       .  T
C914        N918   1.157       .  T
C915        N920   1.157       .  T
C916        N919   1.157       .  T
C925        C926   1.411       .  A
C925        C930   1.405       .  A
C925        C939   1.444       .  S
C926        C927   1.405       .  A
C926        C931   1.499       .  S
C927        C928   1.411       .  A
C927        H946   1.085       .  S
C928        C929   1.421       .  A
C928        C940   1.444       .  S
C929        C930   1.409       .  A
C930        H945   1.084       .  S
C931        C932   1.404       .  A
C931        C936   1.414       .  A
C932        C933   1.406       .  A
C932        H947   1.084       .  S
C933        C934   1.412       .  A
C933        C937   1.443       .  S
C934        C935   1.406       .  A
C935        C936   1.409       .  A
C935        H948   1.084       .  S
C936        C938   1.443       .  S
C937        N941   1.157       .  T
C938        N942   1.157       .  T
C939        N944   1.157       .  T
C940        N943   1.157       .  T
C949        C950   1.410       .  A
C949        C954   1.399       .  A
C949        C963   1.445       .  S
C950        C951   1.402   1_545  A
C950        C955   1.485       .  S
C951        C952   1.403       .  A
C951        H970   1.085       .  S
C952        C953   1.417   1_565  A
C952        C964   1.444       .  S
C953        C954   1.407       .  A
C954        H969   1.085       .  S
C955        C956   1.403       .  A
C955        C960   1.412       .  A
C956        C957   1.399       .  A
C956        H971   1.085       .  S
C957        C958   1.412       .  A
C957        C961   1.445       .  S
C958        C959   1.401       .  A
C959        C960   1.402       .  A
C959        H972   1.085       .  S
C960        C962   1.443       .  S
C961        N965   1.157       .  T
C962        N966   1.157   1_545  T
C963        N968   1.157       .  T
C964        N967   1.157       .  T
C973        C974   1.411       .  A
C973        C978   1.402       .  A
C973        C987   1.443       .  S
C974        C975   1.405       .  A
C974        C979   1.489       .  S
C975        C976   1.406       .  A
C975        H994   1.084       .  S
C976        C977   1.411       .  A
C976        C988   1.444       .  S
C977        C978   1.401       .  A
C978        H993   1.085       .  S
C979        C980   1.399       .  A
C979        C984   1.409       .  A
C980        C981   1.402       .  A
C980        H995   1.085       .  S
C981        C982   1.421       .  A
C981        C985   1.443       .  S
C982        C983   1.410       .  A
C983        C984   1.406       .  A
C983        H996   1.084       .  S
C984        C986   1.443       .  S
C985        N989   1.157       .  T
C986        N990   1.157   1_565  T
C987        N992   1.157       .  T
C988        N991   1.157       .  T
C997        C998   1.409       .  A
C997       C1002   1.395       .  A
C997       C1011   1.445       .  S
C998        C999   1.402       .  A
C998       C1003   1.480       .  S
C999       C1000   1.404       .  A
C999       H1018   1.085       .  S
C1000      C1001   1.415       .  A
C1000      C1012   1.444   1_565  S
C1001      C1002   1.406       .  A
C1002      H1017   1.085       .  S
C1003      C1004   1.401       .  A
C1003      C1008   1.408       .  A
C1004      C1005   1.401       .  A
C1004      H1019   1.085       .  S
C1005      C1006   1.414       .  A
C1005      C1009   1.444       .  S
C1006      C1007   1.406       .  A
C1007      C1008   1.398       .  A
C1007      H1020   1.085       .  S
C1008      C1010   1.444       .  S
C1009      N1013   1.157       .  T
C1010      N1014   1.157       .  T
C1011      N1016   1.157       .  T
C1012      N1015   1.157       .  T
C1021      C1022   1.409       .  A
C1021      C1026   1.399       .  A
C1021      C1035   1.444       .  S
C1022      C1023   1.401       .  A
C1022      C1027   1.479       .  S
C1023      C1024   1.400       .  A
C1023      H1042   1.085       .  S
C1024      C1025   1.413       .  A
C1024      C1036   1.444       .  S
C1025      C1026   1.404       .  A
C1026      H1041   1.085       .  S
C1027      C1028   1.403       .  A
C1027      C1032   1.407       .  A
C1028      C1029   1.405       .  A
C1028      H1043   1.084       .  S
C1029      C1030   1.415       .  A
C1029      C1033   1.443       .  S
C1030      C1031   1.407       .  A
C1031      C1032   1.393       .  A
C1031      H1044   1.085       .  S
C1032      C1034   1.446       .  S
C1033      N1037   1.157       .  T
C1034      N1038   1.157       .  T
C1035      N1040   1.157       .  T
C1036      N1039   1.157       .  T
C1045      C1046   1.410       .  A
C1045      C1050   1.404       .  A
C1045      C1059   1.443       .  S
C1046      C1047   1.400       .  A
C1046      C1051   1.484       .  S
C1047      C1048   1.397       .  A
C1047      H1066   1.085       .  S
C1048      C1049   1.416       .  A
C1048      C1060   1.444       .  S
C1049      C1050   1.407       .  A
C1050      H1065   1.085       .  S
C1051      C1052   1.402       .  A
C1051      C1056   1.411       .  A
C1052      C1053   1.398       .  A
C1052      H1067   1.085       .  S
C1053      C1054   1.413       .  A
C1053      C1057   1.444       .  S
C1054      C1055   1.406       .  A
C1055      C1056   1.402       .  A
C1055      H1068   1.085       .  S
C1056      C1058   1.444       .  S
C1057      N1061   1.157       .  T
C1058      N1062   1.157       .  T
C1059      N1064   1.157       .  T
C1060      N1063   1.157       .  T
C1069      C1070   1.411       .  A
C1069      C1074   1.403       .  A
C1069      C1083   1.443       .  S
C1070      C1071   1.403       .  A
C1070      C1075   1.486       .  S
C1071      C1072   1.401       .  A
C1071      H1090   1.085       .  S
C1072      C1073   1.412       .  A
C1072      C1084   1.444       .  S
C1073      C1074   1.404       .  A
C1074      H1089   1.085       .  S
C1075      C1076   1.404       .  A
C1075      C1080   1.412       .  A
C1076      C1077   1.403       .  A
C1076      H1091   1.085       .  S
C1077      C1078   1.412       .  A
C1077      C1081   1.444       .  S
C1078      C1079   1.401       .  A
C1079      C1080   1.400       .  A
C1079      H1092   1.085       .  S
C1080      C1082   1.443       .  S
C1081      N1085   1.157       .  T
C1082      N1086   1.157       .  T
C1083      N1088   1.157       .  T
C1084      N1087   1.157       .  T
