geometry optimzed in LAMMPS
_audit_creation_date              2020-12-01 
_audit_creation_method            'lammps2cif' 
_symmetry_space_group_name_H-M    'P1' 
_symmetry_Int_Tables_number       1 
_symmetry_cell_setting            triclinic 
loop_ 
_symmetry_equiv_pos_as_xyz 
  x,y,z 
_cell_length_a                    32.50174815 
_cell_length_b                    32.612723568901835 
_cell_length_c                    32.575631608898625 
_cell_angle_alpha                 89.90852634568807 
_cell_angle_beta                  91.28564201992577 
_cell_angle_gamma                 90.65463233819493 
loop_ 
_atom_site_label 
_atom_site_type_symbol 
_atom_site_fract_x 
_atom_site_fract_y 
_atom_site_fract_z 
_atom_site_charge 
C1          C  0.68570881  0.68138350  0.66631019     0.46500
H2          H  0.66833466  0.66088462  0.64532508    -0.02500
C3          C  0.73161967  0.72879346  0.71221027     0.46600
H4          H  0.75170185  0.74867637  0.73189243    -0.02500
C5          C  0.71601426  0.70753329  0.64216666    -0.16200
C6          C  0.66062061  0.71250179  0.69058075    -0.15900
C7          C  0.71160511  0.65829318  0.69891828    -0.16300
C8          C  0.74090589  0.73206952  0.66622337    -0.16300
C9          C  0.68548298  0.73755104  0.71525518    -0.15900
C10         C  0.73579942  0.68344650  0.72309927    -0.16200
C11         C  0.74109062  0.28002795  0.71425868     0.46500
H12         H  0.76439389  0.26301074  0.73254718    -0.02500
C13         C  0.68685284  0.32028673  0.67152879     0.46600
H14         H  0.66340303  0.33748460  0.65372253    -0.02500
C15         C  0.69667108  0.26758526  0.72430219    -0.16200
C16         C  0.74386055  0.32655718  0.72100792    -0.15900
C17         C  0.74495520  0.27433493  0.66787413    -0.16300
C18         C  0.66783296  0.28917323  0.70159492    -0.16300
C19         C  0.71500914  0.34821025  0.69840575    -0.15900
C20         C  0.71599451  0.29517166  0.64495835    -0.16200
C21         C  0.33519134  0.32857851  0.69706328     0.46500
H22         H  0.35548772  0.34755199  0.67741492    -0.02500
C23         C  0.28786957  0.28479734  0.74329485     0.46600
H24         H  0.26843305  0.26562017  0.76323760    -0.02500
C25         C  0.30693205  0.29898788  0.67285093    -0.16200
C26         C  0.35907589  0.30127187  0.72749296    -0.15900
C27         C  0.30578767  0.35388779  0.72289712    -0.16300
C28         C  0.28140586  0.27605438  0.69721695    -0.16300
C29         C  0.33396515  0.27845644  0.75226281    -0.15900
C30         C  0.28074617  0.33086690  0.74759462    -0.16200
C31         C  0.28672354  0.73220810  0.73833566     0.46500
H32         H  0.26797438  0.75331712  0.75667115    -0.02500
C33         C  0.32973821  0.68342800  0.69405731     0.46600
H34         H  0.34805634  0.66301356  0.67445098    -0.02500
C35         C  0.33295489  0.74088674  0.74114169    -0.16200
C36         C  0.28162782  0.68708691  0.74989706    -0.15900
C37         C  0.27589705  0.73451088  0.69260869    -0.16300
C38         C  0.35573185  0.71505619  0.71786657    -0.16300
C39         C  0.30449370  0.66110567  0.72666581    -0.15900
C40         C  0.29824155  0.70844212  0.66925508    -0.16200
C41         C  0.31818253  0.67991385  0.33922372     0.46500
H42         H  0.33646825  0.65959355  0.35962927    -0.02500
C43         C  0.27371684  0.72596542  0.29120413     0.46600
H44         H  0.25426884  0.74483888  0.27028719    -0.02500
C45         C  0.29018287  0.70969073  0.36216162    -0.16200
C46         C  0.34403186  0.70736089  0.31103875    -0.15900
C47         C  0.28930720  0.65555101  0.31002750    -0.16300
C48         C  0.26691555  0.73426672  0.33664786    -0.16300
C49         C  0.32028914  0.73171101  0.28561250    -0.15900
C50         C  0.26544695  0.68000519  0.28528001    -0.16200
C51         C  0.71872865  0.72305391  0.25983456     0.46500
H52         H  0.73502484  0.74354015  0.23823078    -0.02500
C53         C  0.68023403  0.67470253  0.30964465     0.46600
H54         H  0.66336793  0.65394661  0.33042625    -0.02500
C55         C  0.67190466  0.72694715  0.25630641    -0.16200
C56         C  0.72757549  0.67751155  0.25357059    -0.15900
C57         C  0.72974357  0.73105254  0.30521224    -0.16300
C58         C  0.65143962  0.70085197  0.28222523    -0.16300
C59         C  0.70803230  0.65190785  0.28037065    -0.15900
C60         C  0.70924970  0.70558645  0.33186036    -0.16200
C61         C  0.27364031  0.27582539  0.29536190     0.46500
H62         H  0.25262398  0.25589340  0.27663557    -0.02500
C63         C  0.32217183  0.32285231  0.33887341     0.46600
H64         H  0.34303380  0.34325636  0.35693618    -0.02500
C65         C  0.31929229  0.26863935  0.28726029    -0.16200
C66         C  0.26619151  0.32183457  0.28833750    -0.15900
C67         C  0.26958742  0.26887847  0.34161944    -0.16300
C68         C  0.34535073  0.29486228  0.30893721    -0.16300
C69         C  0.29155109  0.34682544  0.31176908    -0.15900
C70         C  0.29475129  0.29421936  0.36496051    -0.16200
C71         C  0.68058958  0.32070140  0.30954584     0.46500
H72         H  0.66163381  0.33943333  0.32986132    -0.02500
C73         C  0.72590752  0.27459287  0.26455806     0.46600
H74         H  0.74565657  0.25489023  0.24568891    -0.02500
C75         C  0.70838585  0.29179899  0.33460420    -0.16200
C76         C  0.65554957  0.29297940  0.27962216    -0.15900
C77         C  0.70994047  0.34528553  0.28217256    -0.16300
C78         C  0.73175460  0.26701101  0.31083158    -0.16300
C79         C  0.67959261  0.26857899  0.25573652    -0.15900
C80         C  0.73426256  0.32069117  0.25876195    -0.16200
O81         O  0.04953156  0.03432662  0.34213534    -0.70700
O82         O  0.95298322  0.96992938  0.32786402    -0.70900
O83         O  0.96926722  0.05035842  0.33312733    -0.70800
O84         O  0.03336755  0.95355740  0.33712977    -0.70800
O85         O  0.03282989  0.95567128  0.40379005    -0.70800
O86         O  0.95698937  0.04297441  0.39797789    -0.70800
O87         O  0.95061789  0.96145537  0.39383027    -0.70700
O88         O  0.03840802  0.03784504  0.40762761    -0.70900
V89         V  0.00122927  0.00193843  0.33621654     1.35200
V90         V  0.99489211  0.99939319  0.39965429     1.35200
C91         C  0.05900062  0.04882574  0.37702906     0.78500
C92         C  0.93554623  0.95418150  0.35841613     0.78600
C93         C  0.95110926  0.06237565  0.36480386     0.78500
C94         C  0.04520271  0.93902245  0.37137189     0.78400
O95         O  0.05336080  0.96880364  0.67947716    -0.70700
O96         O  0.96330783  0.04179035  0.67350001    -0.70900
O97         O  0.97165513  0.96028761  0.67568232    -0.70800
O98         O  0.04515490  0.05038043  0.67781719    -0.70800
O99         O  0.05059972  0.04719686  0.61165676    -0.70800
O100        O  0.97036915  0.96148658  0.60912792    -0.70800
O101        O  0.96814711  0.04377376  0.60719721    -0.70700
O102        O  0.05233419  0.96464781  0.61290015    -0.70900
V103        V  0.00842242  0.00535693  0.67534020     1.35200
V104        V  0.01033587  0.00436927  0.61142839     1.35200
C105        C  0.06705650  0.95309701  0.64712880     0.78500
C106        C  0.95076614  0.05573694  0.63926756     0.78600
C107        C  0.95822890  0.94546468  0.64220946     0.78500
C108        C  0.06105762  0.06386239  0.64541129     0.78400
O109        O  0.39809402  0.96400271  0.97413935    -0.70700
O110        O  0.39687102  0.03991478  0.06206053    -0.70900
O111        O  0.39679801  0.95792583  0.05632915    -0.70800
O112        O  0.39824480  0.04529243  0.97915131    -0.70800
O113        O  0.33151977  0.04310903  0.97511835    -0.70800
O114        O  0.33001573  0.95882894  0.05512721    -0.70800
O115        O  0.33008910  0.04030154  0.05811767    -0.70700
O116        O  0.33126845  0.96177279  0.97310174    -0.70900
V117        V  0.39624441  0.00185592  0.01796989     1.35200
V118        V  0.33203041  0.00116380  0.01547898     1.35200
C119        C  0.36484452  0.95032350  0.95841599     0.78500
C120        C  0.36309850  0.05234697  0.07565406     0.78600
C121        C  0.36308647  0.94362490  0.06905747     0.78500
C122        C  0.36515917  0.05746765  0.96226242     0.78400
O123        O  0.96318712  0.34081968  0.02868646    -0.70700
O124        O  0.05892680  0.35197817  0.96533921    -0.70900
O125        O  0.04420157  0.34390446  0.04508369    -0.70800
O126        O  0.97785305  0.34854738  0.94832339    -0.70800
O127        O  0.97088859  0.41410837  0.95632483    -0.70800
O128        O  0.04529737  0.41027475  0.04862467    -0.70800
O129        O  0.05347633  0.41825177  0.96692388    -0.70700
O130        O  0.96276948  0.40657726  0.03804194    -0.70900
V131        V  0.01093869  0.34762881  0.99691583     1.35200
V132        V  0.00812789  0.41115383  0.00235106     1.35200
C133        C  0.94717604  0.37162428  0.04524041     0.78500
C134        C  0.07247596  0.38691769  0.95515632     0.78600
C135        C  0.05714885  0.37610616  0.06286700     0.78500
C136        C  0.96206200  0.38181409  0.93628874     0.78400
O137        O  0.58378674  0.95684266  0.02802150    -0.70700
O138        O  0.60373549  0.03888485  0.94681194    -0.70900
O139        O  0.59753447  0.95636001  0.94687088    -0.70800
O140        O  0.59008382  0.03956918  0.02801289    -0.70800
O141        O  0.65419462  0.02954927  0.04520244    -0.70800
O142        O  0.66394202  0.95779627  0.95473776    -0.70800
O143        O  0.66843777  0.03967991  0.96475591    -0.70700
O144        O  0.64978964  0.94794006  0.03448617    -0.70900
V145        V  0.59488989  0.99787532  0.98765343     1.35200
V146        V  0.65789871  0.99388922  0.99957418     1.35200
C147        C  0.61364499  0.93725937  0.04372839     0.78500
C148        C  0.63942297  0.05422374  0.94283790     0.78600
C149        C  0.63228048  0.94328777  0.93646848     0.78500
C150        C  0.62079380  0.04780229  0.05119791     0.78400
O151        O  0.96185535  0.67095561  0.95921055    -0.70700
O152        O  0.04982465  0.67178640  0.03761868    -0.70900
O153        O  0.04320742  0.66919010  0.95540525    -0.70800
O154        O  0.96760770  0.67336810  0.04169001    -0.70800
O155        O  0.96339995  0.60684428  0.04163465    -0.70800
O156        O  0.04381130  0.60260924  0.95999940    -0.70800
O157        O  0.04573715  0.60547461  0.04229865    -0.70700
O158        O  0.96122987  0.60428229  0.95948291    -0.70900
V159        V  0.00554730  0.67004369  0.99862908     1.35200
V160        V  0.00358680  0.60605732  0.00081877     1.35200
C161        C  0.94745527  0.63758282  0.94507405     0.78500
C162        C  0.06255124  0.63887145  0.05374167     0.78600
C163        C  0.05645021  0.63518406  0.94333828     0.78500
C164        C  0.95216558  0.64075268  0.05593404     0.78400
C165        C  0.66461832  0.20576668  0.15812492    -0.13300
C166        C  0.63436718  0.17737326  0.16964133     0.17100
C167        C  0.61862701  0.17909360  0.20952154     0.03400
C168        C  0.63373230  0.20867232  0.23732043    -0.11800
C169        C  0.66390446  0.23739103  0.22575059    -0.02900
C170        C  0.67933152  0.23569849  0.18556450     0.02600
C171        C  0.62382050  0.14329178  0.14122939     0.09500
N172        N  0.58697139  0.15128443  0.22195401     0.65800
H173        H  0.62207521  0.20882815  0.26816786     0.18700
N174        N  0.70796724  0.26570162  0.17115896     0.76300
H175        H  0.67729951  0.20439899  0.12767416     0.10300
C176        C  0.60732079  0.15050742  0.10147232     0.03900
C177        C  0.60436605  0.11830821  0.07309626    -0.04800
C178        C  0.61853784  0.07912251  0.08348292    -0.23200
C179        C  0.63383419  0.07163460  0.12356152     0.13200
C180        C  0.63605077  0.10357942  0.15214965    -0.12300
N181        N  0.59472595  0.19060650  0.08914059     0.64900
H182        H  0.59278272  0.12440400  0.04224699     0.12700
N183        N  0.64763029  0.03182927  0.13548922     0.61500
H184        H  0.64927557  0.09779254  0.18241862     0.08900
O185        O  0.69442159  0.29851089  0.15570453    -0.40000
O186        O  0.74438005  0.25523579  0.16405253    -0.39100
O187        O  0.59492432  0.12398912  0.24835751    -0.39100
O188        O  0.55004755  0.15805893  0.21150810    -0.36800
O189        O  0.68562859  0.02428654  0.13633883    -0.37700
O190        O  0.62292764  0.00716093  0.15219729    -0.33900
O191        O  0.61614107  0.21081897  0.06419169    -0.35300
O192        O  0.55897894  0.20248947  0.09711513    -0.39600
C193        C  0.83293025  0.33099135  0.19985504    -0.13300
C194        C  0.81989940  0.35364727  0.16550528     0.17100
C195        C  0.77929906  0.36863456  0.16353164     0.03400
C196        C  0.75258172  0.36027011  0.19589050    -0.11800
C197        C  0.76512916  0.33561478  0.22912397    -0.02900
C198        C  0.80601774  0.32184080  0.23145589     0.02600
C199        C  0.84930199  0.35958304  0.13187895     0.09500
N200        N  0.76381395  0.38931791  0.12766713     0.65800
H201        H  0.72102109  0.37056450  0.19370143     0.18700
N202        N  0.82111649  0.29972521  0.26642702     0.76300
H203        H  0.86429993  0.32009924  0.20199807     0.10300
C204        C  0.86464047  0.39857437  0.12100040     0.03900
C205        C  0.89536617  0.40198344  0.09159250    -0.04800
C206        C  0.91184954  0.36693388  0.07319093    -0.23200
C207        C  0.89535992  0.32797535  0.08348297     0.13200
C208        C  0.86438392  0.32477642  0.11241397    -0.12300
N209        N  0.85111009  0.43469958  0.14121072     0.64900
H210        H  0.90741103  0.43218841  0.08434272     0.12700
N211        N  0.91050738  0.29109699  0.06600842     0.61500
H212        H  0.85269540  0.29465026  0.12058709     0.08900
O213        O  0.83505629  0.26409188  0.26190217    -0.40000
O214        O  0.82905695  0.31894069  0.29929231    -0.39100
O215        O  0.76582899  0.37235666  0.09297406    -0.39100
O216        O  0.74275360  0.42133523  0.13129521    -0.36800
O217        O  0.93948361  0.27227590  0.08394799    -0.37700
O218        O  0.89039074  0.27373210  0.03724404    -0.33900
O219        O  0.86492748  0.44315244  0.17674520    -0.35300
O220        O  0.83146600  0.46143836  0.12105053    -0.39600
C221        C  0.79514254  0.17123689  0.32455273    -0.13300
C222        C  0.82737295  0.18563574  0.35000836     0.17100
C223        C  0.82681342  0.22598835  0.36500847     0.03400
C224        C  0.79427200  0.25166594  0.35370310    -0.11800
C225        C  0.76254719  0.23768846  0.32707055    -0.02900
C226        C  0.76276262  0.19685974  0.31304897     0.02600
C227        C  0.86218457  0.15827982  0.35832305     0.09500
N228        N  0.85966409  0.24154539  0.39057508     0.65800
H229        H  0.79465002  0.28307397  0.36446161     0.18700
N230        N  0.72990914  0.18076319  0.28779247     0.76300
H231        H  0.79540432  0.13999763  0.31323777     0.10300
C232        C  0.85957419  0.12745073  0.38830426     0.03900
C233        C  0.88986732  0.09747836  0.39095008    -0.04800
C234        C  0.92241135  0.09711923  0.36325553    -0.23200
C235        C  0.92559390  0.12892154  0.33395203     0.13200
C236        C  0.89562502  0.15938284  0.33196729    -0.12300
N237        N  0.82511009  0.12501319  0.41469645     0.64900
H238        H  0.88680398  0.07328862  0.41356599     0.12700
N239        N  0.95850794  0.13037407  0.30559400     0.61500
H240        H  0.89742846  0.18295424  0.30855202     0.08900
O241        O  0.73703723  0.16878098  0.25185198    -0.40000
O242        O  0.69609411  0.17144001  0.30385573    -0.39100
O243        O  0.88622016  0.26548138  0.37567342    -0.39100
O244        O  0.85868126  0.23633941  0.42892556    -0.36800
O245        O  0.98896598  0.15387284  0.31255215    -0.37700
O246        O  0.95331222  0.11494751  0.27033421    -0.33900
O247        O  0.79489908  0.10198041  0.40532838    -0.35300
O248        O  0.82705080  0.14176786  0.44956592    -0.39600
C249        C  0.45216028  0.29099124  0.26221366    -0.13300
C250        C  0.47813835  0.29577888  0.29708651     0.17100
C251        C  0.46000839  0.30520552  0.33497996     0.03400
C252        C  0.41691864  0.30469167  0.33801688    -0.11800
C253        C  0.39103871  0.29840774  0.30332342    -0.02900
C254        C  0.40935678  0.29520430  0.26444062     0.02600
C255        C  0.52377371  0.29266127  0.29225480     0.09500
N256        N  0.48439326  0.31702864  0.37042927     0.65800
H257        H  0.40450670  0.31022307  0.36652973     0.18700
N258        N  0.38556510  0.29873711  0.22692174     0.76300
H259        H  0.46523873  0.28525860  0.23264442     0.10300
C260        C  0.54979602  0.27199235  0.32088259     0.03900
C261        C  0.59259475  0.27378017  0.31620742    -0.04800
C262        C  0.60996914  0.29098542  0.28109364    -0.23200
C263        C  0.58381093  0.30772080  0.25030010     0.13200
C264        C  0.54161362  0.31044654  0.25741911    -0.12300
N265        N  0.53349297  0.24734603  0.35339644     0.64900
H266        H  0.61255752  0.25962706  0.33913892     0.12700
N267        N  0.59858160  0.32025533  0.21100213     0.61500
H268        H  0.52245358  0.32582711  0.23470150     0.08900
O269        O  0.39569563  0.27919856  0.19534684    -0.40000
O270        O  0.35804569  0.32562590  0.22364502    -0.39100
O271        O  0.51252098  0.34379783  0.36720598    -0.39100
O272        O  0.47455158  0.30476391  0.40569392    -0.36800
O273        O  0.61007038  0.29296401  0.18662174    -0.37700
O274        O  0.58644053  0.35368891  0.19575313    -0.33900
O275        O  0.50456631  0.22214564  0.34585130    -0.35300
O276        O  0.55182372  0.24616897  0.38796451    -0.39600
C277        C  0.16806808  0.36102907  0.23605012    -0.13300
C278        C  0.17738593  0.35553409  0.19471879     0.17100
C279        C  0.21652451  0.34138125  0.18434638     0.03400
C280        C  0.24524781  0.33171704  0.21539720    -0.11800
C281        C  0.23579425  0.33623821  0.25690805    -0.02900
C282        C  0.19698870  0.35179002  0.26719938     0.02600
C283        C  0.14501101  0.36157756  0.16282249     0.09500
N284        N  0.22739618  0.33670132  0.14236017     0.65800
H285        H  0.27531956  0.32112967  0.20700560     0.18700
N286        N  0.18595104  0.35764942  0.30890292     0.76300
H287        H  0.13793246  0.37190041  0.24416530     0.10300
C288        C  0.12256461  0.32785411  0.14703307     0.03900
C289        C  0.09367845  0.33356490  0.11520580    -0.04800
C290        C  0.08602733  0.37277945  0.09878806    -0.23200
C291        C  0.10763672  0.40688394  0.11585799     0.13200
C292        C  0.13708477  0.40092887  0.14747171    -0.12300
N293        N  0.12869378  0.28758376  0.16328676     0.64900
H294        H  0.07725249  0.30690611  0.10323740     0.12700
N295        N  0.10076016  0.44754927  0.10105469     0.61500
H296        H  0.15411376  0.42705373  0.15983424     0.08900
O297        O  0.15640353  0.33695483  0.32299722    -0.40000
O298        O  0.19661961  0.39056447  0.32663194    -0.39100
O299        O  0.23308956  0.30137190  0.12796760    -0.39100
O300        O  0.23707443  0.36787671  0.12155429    -0.36800
O301        O  0.07213759  0.46845637  0.11567122    -0.37700
O302        O  0.12719621  0.46478498  0.07886933    -0.33900
O303        O  0.10857274  0.27588653  0.19393302    -0.35300
O304        O  0.14872802  0.26178246  0.14324336    -0.39600
C305        C  0.37231053  0.17643565  0.23907602    -0.13300
C306        C  0.35005631  0.17327009  0.20197912     0.17100
C307        C  0.31862924  0.20126138  0.19285923     0.03400
C308        C  0.30926366  0.23144317  0.22130867    -0.11800
C309        C  0.33135826  0.23522564  0.25870720    -0.02900
C310        C  0.36312744  0.20687451  0.26771323     0.02600
C311        C  0.35711086  0.13878568  0.17400966     0.09500
N312        N  0.29610906  0.19935877  0.15458416     0.65800
H313        H  0.28491373  0.25250055  0.21354713     0.18700
N314        N  0.38480688  0.20683433  0.30636746     0.76300
H315        H  0.39581303  0.15413750  0.24649685     0.10300
C316        C  0.39201894  0.13777915  0.14936182     0.03900
C317        C  0.39430222  0.10847802  0.11815163    -0.04800
C318        C  0.36198894  0.08015019  0.11124213    -0.23200
C319        C  0.32817950  0.07978131  0.13775523     0.13200
C320        C  0.32595283  0.10915853  0.16869141    -0.12300
N321        N  0.42377260  0.16819766  0.15379852     0.64900
H322        H  0.42055350  0.10898741  0.09822245     0.12700
N323        N  0.29602589  0.04964222  0.13383181     0.61500
H324        H  0.29922696  0.10960011  0.18801054     0.08900
O325        O  0.42361791  0.20609179  0.30729973    -0.40000
O326        O  0.36569721  0.19802922  0.33844772    -0.39100
O327        O  0.25744267  0.19533148  0.15417406    -0.39100
O328        O  0.31483199  0.20157113  0.12110133    -0.36800
O329        O  0.26100033  0.05982070  0.12007140    -0.37700
O330        O  0.30083649  0.01458735  0.14956253    -0.33900
O331        O  0.45212084  0.16370711  0.18046516    -0.35300
O332        O  0.42134975  0.20129221  0.13382779    -0.39600
C333        C  0.21906954  0.17510900  0.39089125    -0.13300
C334        C  0.18047998  0.17611159  0.37126715     0.17100
C335        C  0.17026556  0.20910624  0.34542642     0.03400
C336        C  0.19942741  0.23976723  0.33828539    -0.11800
C337        C  0.23903702  0.23828392  0.35640835    -0.02900
C338        C  0.24854046  0.20573998  0.38384538     0.02600
C339        C  0.15152708  0.14180512  0.37684991     0.09500
N340        N  0.13116674  0.21066820  0.32452163     0.65800
H341        H  0.19145903  0.26428995  0.31722684     0.18700
N342        N  0.28812563  0.20125140  0.40308799     0.76300
H343        H  0.22673362  0.14973609  0.41109218     0.10300
C344        C  0.15947668  0.10293338  0.36024975     0.03900
C345        C  0.12946499  0.07209280  0.36203829    -0.04800
C346        C  0.09206292  0.07931909  0.38109386    -0.23200
C347        C  0.08512173  0.11743047  0.39985361     0.13200
C348        C  0.11479939  0.14855011  0.39730428    -0.12300
N349        N  0.19702374  0.09507513  0.33980552     0.64900
H350        H  0.13491007  0.04277647  0.34760747     0.12700
N351        N  0.04691217  0.12589156  0.41881457     0.61500
H352        H  0.10877055  0.17838832  0.41033785     0.08900
O353        O  0.29245443  0.21217756  0.44007180    -0.40000
O354        O  0.31055352  0.17279096  0.39058659    -0.39100
O355        O  0.10488530  0.23645738  0.33533160    -0.39100
O356        O  0.12503734  0.19022868  0.29205447    -0.36800
O357        O  0.01827056  0.14246158  0.39821222    -0.37700
O358        O  0.04409646  0.12271887  0.45725135    -0.33900
O359        O  0.22449619  0.07391543  0.35741067    -0.35300
O360        O  0.20032479  0.10426749  0.30237788    -0.39600
C361        C  0.68412090  0.45883572  0.27916650    -0.13300
C362        C  0.72327782  0.47666153  0.28120005     0.17100
C363        C  0.75797394  0.45179634  0.28614807     0.03400
C364        C  0.75287997  0.40915117  0.28728228    -0.11800
C365        C  0.71349788  0.39080692  0.28348494    -0.02900
C366        C  0.67868429  0.41642423  0.28048527     0.02600
C367        C  0.72595955  0.52157758  0.27965956     0.09500
N368        N  0.79838892  0.46936041  0.28925627     0.65800
H369        H  0.77991929  0.39029710  0.29092630     0.18700
N370        N  0.63759103  0.40074477  0.27631748     0.76300
H371        H  0.65730593  0.47822422  0.27633608     0.10300
C372        C  0.71504623  0.54258567  0.24341595     0.03900
C373        C  0.70885255  0.58481687  0.24449309    -0.04800
C374        C  0.71362691  0.60678345  0.28135754    -0.23200
C375        C  0.72516174  0.58554266  0.31769771     0.13200
C376        C  0.73148453  0.54322357  0.31636263    -0.12300
N377        N  0.70916849  0.52103280  0.20554600     0.64900
H378        H  0.69978308  0.60049225  0.21642843     0.12700
N379        N  0.73053490  0.60594256  0.35626244     0.61500
H380        H  0.73890500  0.52686125  0.34451829     0.08900
O381        O  0.61797627  0.39301269  0.30845568    -0.40000
O382        O  0.61726957  0.41045614  0.24443113    -0.39100
O383        O  0.81788427  0.46875332  0.32318375    -0.39100
O384        O  0.81672320  0.47996625  0.25713063    -0.36800
O385        O  0.76632006  0.60868992  0.37188348    -0.37700
O386        O  0.70025233  0.60777057  0.37972952    -0.33900
O387        O  0.67327734  0.51209271  0.19268810    -0.35300
O388        O  0.73953484  0.51435051  0.18314254    -0.39600
C389        C  0.88584299  0.67576118  0.14280215    -0.13300
C390        C  0.85682239  0.64379307  0.14360378     0.17100
C391        C  0.85988457  0.61041539  0.11683833     0.03400
C392        C  0.89185679  0.60953433  0.08907412    -0.11800
C393        C  0.92073071  0.64185809  0.08752194    -0.02900
C394        C  0.91786948  0.67505297  0.11502087     0.02600
C395        C  0.82208193  0.64720820  0.17098811     0.09500
N396        N  0.83035525  0.57764455  0.11724068     0.65800
H397        H  0.89352291  0.58391393  0.06804672     0.18700
N398        N  0.94752562  0.70776881  0.11562210     0.76300
H399        H  0.88334582  0.70147469  0.16362462     0.10300
C400        C  0.82617684  0.63667004  0.21267756     0.03900
C401        C  0.79405836  0.64487484  0.23901883    -0.04800
C402        C  0.75832959  0.66413071  0.22419796    -0.23200
C403        C  0.75394900  0.67370506  0.18223729     0.13200
C404        C  0.78587744  0.66507284  0.15584214    -0.12300
N405        N  0.86360479  0.61982313  0.22885289     0.64900
H406        H  0.79768717  0.63786081  0.27142433     0.12700
N407        N  0.71734714  0.69226467  0.16617831     0.61500
H408        H  0.78292871  0.67328903  0.12366036     0.08900
O409        O  0.98111827  0.70356926  0.13527343    -0.40000
O410        O  0.93770115  0.74262898  0.10197879    -0.39100
O411        O  0.80244932  0.57558033  0.08974689    -0.39100
O412        O  0.83428446  0.54889064  0.14292074    -0.36800
O413        O  0.68588132  0.67031385  0.15858842    -0.37700
O414        O  0.71846618  0.72888752  0.15365545    -0.33900
O415        O  0.88770040  0.64171526  0.25067044    -0.35300
O416        O  0.87368211  0.58380525  0.21962684    -0.39600
C417        C  0.62343667  0.83293479  0.09355812    -0.13300
C418        C  0.60990530  0.84096161  0.13335754     0.17100
C419        C  0.59294105  0.87970325  0.14179317     0.03400
C420        C  0.59154261  0.91007689  0.11120546    -0.11800
C421        C  0.60723909  0.90265568  0.07225678    -0.02900
C422        C  0.62211741  0.86337596  0.06304499     0.02600
C423        C  0.62099872  0.81190541  0.16703116     0.09500
N424        N  0.57884338  0.88920936  0.18188394     0.65800
H425        H  0.58009263  0.94019902  0.11854877     0.18700
N426        N  0.63692603  0.85447993  0.02302302     0.76300
H427        H  0.63694737  0.80357055  0.08670692     0.10300
C428        C  0.60734715  0.77064426  0.16758648     0.03900
C429        C  0.62319275  0.74341380  0.19743578    -0.04800
C430        C  0.65233540  0.75681024  0.22717914    -0.23200
C431        C  0.66485527  0.79840068  0.22707410     0.13200
C432        C  0.64956743  0.82517593  0.19704726    -0.12300
N433        N  0.57725778  0.75614951  0.13828635     0.64900
H434        H  0.61321343  0.71160022  0.19698176     0.12700
N435        N  0.69185689  0.81457596  0.25830184     0.61500
H436        H  0.66063837  0.85664833  0.19687303     0.08900
O437        O  0.67403894  0.84486698  0.01846872    -0.40000
O438        O  0.61292995  0.85643525  0.99209266    -0.39100
O439        O  0.59872368  0.91456332  0.20408250    -0.39100
O440        O  0.54352338  0.87736139  0.19240520    -0.36800
O441        O  0.72647559  0.82903719  0.24852546    -0.37700
O442        O  0.67699388  0.82438119  0.29230109    -0.33900
O443        O  0.58719911  0.73051259  0.11139673    -0.35300
O444        O  0.53976315  0.76397242  0.14323913    -0.39600
C445        C  0.82019146  0.80504617  0.30726164    -0.13300
C446        C  0.80695661  0.83454167  0.33490931     0.17100
C447        C  0.76898769  0.82930555  0.35432813     0.03400
C448        C  0.74503514  0.79429367  0.34579122    -0.11800
C449        C  0.75780688  0.76522038  0.31712207    -0.02900
C450        C  0.79606227  0.77069908  0.29800658     0.02600
C451        C  0.83466551  0.86957171  0.34335552     0.09500
N452        N  0.75336637  0.86024090  0.38069449     0.65800
H453        H  0.71535912  0.79085785  0.35997739     0.18700
N454        N  0.81209101  0.74085356  0.27074546     0.76300
H455        H  0.84984550  0.80856404  0.29296986     0.10300
C456        C  0.85435297  0.87468753  0.38193592     0.03900
C457        C  0.88576516  0.90397676  0.38664565    -0.04800
C458        C  0.89891266  0.92741034  0.35306482    -0.23200
C459        C  0.87782788  0.92328611  0.31481179     0.13200
C460        C  0.84583218  0.89467805  0.31046028    -0.12300
N461        N  0.84558927  0.84787184  0.41545637     0.64900
H462        H  0.90156055  0.90653650  0.41619544     0.12700
N463        N  0.88920099  0.94682794  0.27971733     0.61500
H464        H  0.83076243  0.89071649  0.28066933     0.08900
O465        O  0.83568638  0.71380892  0.28535260    -0.40000
O466        O  0.81385786  0.74927018  0.23299437    -0.39100
O467        O  0.74608060  0.89551833  0.36650051    -0.39100
O468        O  0.74065308  0.85063026  0.41578693    -0.36800
O469        O  0.87094099  0.97993811  0.27177990    -0.37700
O470        O  0.91157428  0.93100933  0.25296601    -0.33900
O471        O  0.85851371  0.81155309  0.41493529    -0.35300
O472        O  0.83280536  0.86254635  0.44856789    -0.39600
C473        C  0.28161306  0.45896967  0.34285429    -0.13300
C474        C  0.28378018  0.47854063  0.30476732     0.17100
C475        C  0.29024307  0.45515938  0.26932048     0.03400
C476        C  0.29375160  0.41250915  0.27239798    -0.11800
C477        C  0.29076920  0.39248983  0.31049104    -0.02900
C478        C  0.28561229  0.41641658  0.34627974     0.02600
C479        C  0.28382338  0.52376629  0.30360945     0.09500
N480        N  0.29282655  0.47437550  0.23000603     0.65800
H481        H  0.29884039  0.39495639  0.24482788     0.18700
N482        N  0.28349932  0.39851172  0.38631079     0.76300
H483        H  0.27778951  0.47706981  0.37036842     0.10300
C484        C  0.24833770  0.54627960  0.31210270     0.03900
C485        C  0.25068692  0.58913886  0.31443805    -0.04800
C486        C  0.28813050  0.61001924  0.30857468    -0.23200
C487        C  0.32368107  0.58718098  0.30054446     0.13200
C488        C  0.32115618  0.54445854  0.29786767    -0.12300
N489        N  0.20976984  0.52595043  0.31808903     0.64900
H490        H  0.22320883  0.60615782  0.32096888     0.12700
N491        N  0.36247931  0.60670672  0.29402029     0.61500
H492        H  0.34873744  0.52722209  0.29201878     0.08900
O493        O  0.31665413  0.39192236  0.40596792    -0.40000
O494        O  0.25111078  0.40311532  0.40636160    -0.39100
O495        O  0.32721267  0.47800477  0.21307060    -0.39100
O496        O  0.26031781  0.48305672  0.21010851    -0.36800
O497        O  0.38839688  0.60857543  0.32340885    -0.37700
O498        O  0.37484834  0.61036975  0.25775393    -0.33900
O499        O  0.19547750  0.52308542  0.35368458    -0.35300
O500        O  0.18779739  0.51531983  0.28741487    -0.39600
C501        C  0.45868046  0.70337307  0.33806229    -0.13300
C502        C  0.47524962  0.69858937  0.29912215     0.17100
C503        C  0.44887658  0.69465212  0.26460494     0.03400
C504        C  0.40636154  0.69711229  0.26923024    -0.11800
C505        C  0.38940082  0.70316775  0.30806260    -0.02900
C506        C  0.41604465  0.70515635  0.34298925     0.02600
C507        C  0.52024381  0.69916191  0.29488113     0.09500
N508        N  0.46498009  0.68899406  0.22459617     0.65800
H509        H  0.38647071  0.69410654  0.24225281     0.18700
N510        N  0.40084543  0.71114445  0.38335912     0.76300
H511        H  0.47904348  0.70619620  0.36474491     0.10300
C512        C  0.54247476  0.73637881  0.29631703     0.03900
C513        C  0.58517393  0.73632051  0.29260030    -0.04800
C514        C  0.60616610  0.69956995  0.28647351    -0.23200
C515        C  0.58388423  0.66213211  0.28578926     0.13200
C516        C  0.54111383  0.66224088  0.29003879    -0.12300
N517        N  0.52186263  0.77451758  0.30059778     0.64900
H518        H  0.60197186  0.76517513  0.29434313     0.12700
N519        N  0.60397438  0.62396340  0.27948098     0.61500
H520        H  0.52404489  0.63349837  0.28911394     0.08900
O521        O  0.40693423  0.74539640  0.40050752    -0.40000
O522        O  0.39416068  0.68016212  0.40559103    -0.39100
O523        O  0.46799751  0.65326908  0.21024695    -0.39100
O524        O  0.47038237  0.71958415  0.20150035    -0.36800
O525        O  0.61352803  0.61362147  0.24366317    -0.37700
O526        O  0.60554244  0.59782358  0.30807275    -0.33900
O527        O  0.52332225  0.79299952  0.33460329    -0.35300
O528        O  0.50801215  0.79266274  0.26905518    -0.39600
C529        C  0.15438094  0.67178890  0.12095155    -0.13300
C530        C  0.15477323  0.64073851  0.15067366     0.17100
C531        C  0.12569979  0.60853384  0.14782839     0.03400
C532        C  0.09673474  0.60776299  0.11531076    -0.11800
C533        C  0.09552906  0.63939442  0.08592983    -0.02900
C534        C  0.12493058  0.67161945  0.08893507     0.02600
C535        C  0.18282866  0.64523700  0.18669049     0.09500
N536        N  0.12456112  0.57709571  0.17838468     0.65800
H537        H  0.07426076  0.58297416  0.11382832     0.18700
N538        N  0.12524409  0.70452766  0.05993057     0.76300
H539        H  0.17634064  0.69699415  0.12335835     0.10300
C540        C  0.22523984  0.63754779  0.18418225     0.03900
C541        C  0.25163146  0.64701048  0.21753342    -0.04800
C542        C  0.23626959  0.66482983  0.25312468    -0.23200
C543        C  0.19376430  0.67203747  0.25574770     0.13200
C544        C  0.16738294  0.66190857  0.22271317    -0.12300
N545        N  0.24199347  0.62170051  0.14737953     0.64900
H546        H  0.28440319  0.64205578  0.21503425     0.12700
N547        N  0.17707992  0.69050170  0.29136229     0.61500
H548        H  0.13484024  0.66837551  0.22461504     0.08900
O549        O  0.10902141  0.73821537  0.06895018    -0.40000
O550        O  0.14794318  0.70250366  0.02910037    -0.39100
O551        O  0.09757205  0.57797945  0.20560681    -0.39100
O552        O  0.14625451  0.54555527  0.17455016    -0.36800
O553        O  0.16109948  0.72550571  0.28854960    -0.37700
O554        O  0.17082396  0.66884944  0.32278663    -0.33900
O555        O  0.25903970  0.64572623  0.12238422    -0.35300
O556        O  0.24463890  0.58345573  0.14254551    -0.39600
C557        C  0.37274648  0.81868069  0.22786514    -0.13300
C558        C  0.35276518  0.81481794  0.18959565     0.17100
C559        C  0.32643514  0.78113981  0.18174889     0.03400
C560        C  0.31762287  0.75379350  0.21335306    -0.11800
C561        C  0.33553848  0.75881109  0.25260349    -0.02900
C562        C  0.36471992  0.79074863  0.25941306     0.02600
C563        C  0.35615208  0.84831887  0.15961534     0.09500
N564        N  0.30865840  0.77435758  0.14175875     0.65800
H565        H  0.29636224  0.72857965  0.20725835     0.18700
N566        N  0.38487428  0.79682935  0.29835930     0.76300
H567        H  0.39330508  0.84450718  0.23379607     0.10300
C568        C  0.32333504  0.87552176  0.15326320     0.03900
C569        C  0.32614398  0.90595503  0.12329393    -0.04800
C570        C  0.36175172  0.91049419  0.09998619    -0.23200
C571        C  0.39504486  0.88367195  0.10718295     0.13200
C572        C  0.39192571  0.85279817  0.13689782    -0.12300
N573        N  0.28764633  0.87348660  0.17812949     0.64900
H574        H  0.30061515  0.92672425  0.11892916     0.12700
N575        N  0.43153001  0.88632332  0.08363863     0.61500
H576        H  0.41721326  0.83184187  0.14182192     0.08900
O577        O  0.42329407  0.79213275  0.30120140    -0.40000
O578        O  0.36779612  0.81875858  0.32462928    -0.39100
O579        O  0.33098790  0.76149623  0.11342988    -0.39100
O580        O  0.27004832  0.77394768  0.13673263    -0.36800
O581        O  0.46387308  0.90192194  0.09941189    -0.37700
O582        O  0.43341303  0.86685442  0.05030435    -0.33900
O583        O  0.28884365  0.88941685  0.21342092    -0.35300
O584        O  0.25342280  0.86270562  0.16232515    -0.39600
C585        C  0.20291391  0.83047119  0.34640759    -0.13300
C586        C  0.16983736  0.81591604  0.36908460     0.17100
C587        C  0.16974860  0.77516641  0.38327096     0.03400
C588        C  0.20262101  0.74946534  0.37414575    -0.11800
C589        C  0.23511311  0.76356198  0.34988820    -0.02900
C590        C  0.23520086  0.80477702  0.33629735     0.02600
C591        C  0.13487550  0.84360658  0.37491385     0.09500
N592        N  0.13607107  0.75932248  0.40604600     0.65800
H593        H  0.20195656  0.71794479  0.38466874     0.18700
N594        N  0.26830463  0.82181204  0.31344053     0.76300
H595        H  0.20312148  0.86189782  0.33548572     0.10300
C596        C  0.13859662  0.87752969  0.40144419     0.03900
C597        C  0.10801350  0.90738759  0.40112488    -0.04800
C598        C  0.07423312  0.90465259  0.37364161    -0.23200
C599        C  0.07015249  0.87029477  0.34757083     0.13200
C600        C  0.10024260  0.83985839  0.34869950    -0.12300
N601        N  0.17431274  0.88299756  0.42731721     0.64900
H602        H  0.11167816  0.93381628  0.42106854     0.12700
N603        N  0.03579414  0.86604458  0.31970755     0.61500
H604        H  0.09756318  0.81417306  0.32769226     0.08900
O605        O  0.26625358  0.82017511  0.27476706    -0.40000
O606        O  0.29032244  0.84952298  0.33006414    -0.39100
O607        O  0.10748419  0.73967370  0.38774731    -0.39100
O608        O  0.13793898  0.75961981  0.44476889    -0.36800
O609        O  0.03924598  0.87705509  0.28278292    -0.37700
O610        O  0.00476156  0.84522289  0.33009944    -0.33900
O611        O  0.20260236  0.90733467  0.41666815    -0.35300
O612        O  0.17512375  0.86781612  0.46296471    -0.39600
C613        C  0.25707809  0.69208457  0.56086827    -0.13300
C614        C  0.29191864  0.70272178  0.53848214     0.17100
C615        C  0.32869917  0.71433203  0.55927759     0.03400
C616        C  0.33011323  0.71504723  0.60201871    -0.11800
C617        C  0.29511781  0.70522177  0.62438132    -0.02900
C618        C  0.25842557  0.69302438  0.60376823     0.02600
C619        C  0.28881168  0.70437978  0.49345665     0.09500
N620        N  0.36457633  0.72612012  0.53734196     0.65800
H621        H  0.35838304  0.72438104  0.61784501     0.18700
N622        N  0.22276367  0.68072259  0.62582743     0.76300
H623        H  0.22869098  0.68338047  0.54493232     0.10300
C624        C  0.28118654  0.66898186  0.46977347     0.03900
C625        C  0.28128609  0.67167571  0.42698913    -0.04800
C626        C  0.28833557  0.70936383  0.40744172    -0.23200
C627        C  0.29395665  0.74520168  0.43136755     0.13200
C628        C  0.29390079  0.74229717  0.47408337    -0.12300
N629        N  0.27407819  0.63010229  0.48875882     0.64900
H630        H  0.27607578  0.64414213  0.40891196     0.12700
N631        N  0.30194930  0.78431492  0.41318306     0.61500
H632        H  0.29903510  0.76969403  0.49238629     0.08900
O633        O  0.22235579  0.64662222  0.64414781    -0.40000
O634        O  0.18937003  0.69941867  0.61993767    -0.39100
O635        O  0.37604481  0.76322200  0.53706284    -0.39100
O636        O  0.38833237  0.69893808  0.52438654    -0.36800
O637        O  0.33346925  0.78925709  0.39188366    -0.37700
O638        O  0.28257898  0.81537541  0.42486977    -0.33900
O639        O  0.23809068  0.61519632  0.48919925    -0.35300
O640        O  0.30419013  0.60816287  0.49947445    -0.39600
C641        C  0.11134709  0.65345775  0.84469238    -0.13300
C642        C  0.15073379  0.63949683  0.85556327     0.17100
C643        C  0.15793670  0.62135241  0.89430080     0.03400
C644        C  0.12597272  0.61840242  0.92199292    -0.11800
C645        C  0.08718037  0.63387471  0.91167995    -0.02900
C646        C  0.07952845  0.65089627  0.87261935     0.02600
C647        C  0.18503029  0.64947285  0.82866071     0.09500
N648        N  0.19792470  0.60731859  0.90637923     0.65800
H649        H  0.13186830  0.60550674  0.95222884     0.18700
N650        N  0.03975889  0.66588158  0.86114796     0.76300
H651        H  0.10579820  0.66804592  0.81519481     0.10300
C652        C  0.18576741  0.63543683  0.78790306     0.03900
C653        C  0.21770012  0.64790870  0.76271766    -0.04800
C654        C  0.24904100  0.67408489  0.77775254    -0.23200
C655        C  0.24757035  0.68914794  0.81823294     0.13200
C656        C  0.21571812  0.67648747  0.84334954    -0.12300
N657        N  0.15441567  0.60847857  0.77185670     0.64900
H658        H  0.21793077  0.63726809  0.73123591     0.12700
N659        N  0.27869144  0.71610210  0.83486216     0.61500
H660        H  0.21453173  0.68838204  0.87435089     0.08900
O661        O  0.01463105  0.64267770  0.84203066    -0.40000
O662        O  0.03271179  0.70377563  0.86329360    -0.39100
O663        O  0.21776024  0.62521000  0.93502459    -0.39100
O664        O  0.21120015  0.57424479  0.89195933    -0.36800
O665        O  0.30324667  0.70262098  0.86208500    -0.37700
O666        O  0.27374338  0.75431440  0.83198739    -0.33900
O667        O  0.12985937  0.62090282  0.74410070    -0.35300
O668        O  0.15491299  0.57092722  0.78120443    -0.39600
C669        C  0.22466567  0.82726581  0.64417701    -0.13300
C670        C  0.18641177  0.82521212  0.66296469     0.17100
C671        C  0.17635534  0.79128137  0.68754461     0.03400
C672        C  0.20550473  0.76094871  0.69489772    -0.11800
C673        C  0.24457386  0.76368886  0.67767627    -0.02900
C674        C  0.25400620  0.79682627  0.65137581     0.02600
C675        C  0.15749838  0.85917535  0.65757421     0.09500
N676        N  0.13702981  0.78787740  0.70606425     0.65800
H677        H  0.19801672  0.73560642  0.71509651     0.18700
N678        N  0.29365273  0.80142140  0.63363289     0.76300
H679        H  0.23225616  0.85338914  0.62506189     0.10300
C680        C  0.15966349  0.89357969  0.68356492     0.03900
C681        C  0.13003443  0.92415911  0.67965711    -0.04800
C682        C  0.09876368  0.92131012  0.64939026    -0.23200
C683        C  0.09750703  0.88734501  0.62252201     0.13200
C684        C  0.12669633  0.85642943  0.62702972    -0.12300
N685        N  0.19170260  0.89764767  0.71409055     0.64900
H686        H  0.13155793  0.95027796  0.70019278     0.12700
N687        N  0.06553531  0.88274850  0.59198896     0.61500
H688        H  0.12496584  0.82986936  0.60707515     0.08900
O689        O  0.32450553  0.80997384  0.65630761    -0.40000
O690        O  0.29628553  0.80554885  0.59524825    -0.39100
O691        O  0.11013624  0.76375500  0.69093969    -0.39100
O692        O  0.13155033  0.80373360  0.74078934    -0.36800
O693        O  0.03238874  0.86464087  0.60088988    -0.37700
O694        O  0.07280504  0.89098685  0.55497613    -0.33900
O695        O  0.22359446  0.91841832  0.70634288    -0.35300
O696        O  0.18555117  0.88583516  0.75035824    -0.39600
C697        C  0.38222069  0.80157948  0.82817724    -0.13300
C698        C  0.36189534  0.83879450  0.82266090     0.17100
C699        C  0.33784955  0.84565521  0.78711823     0.03400
C700        C  0.33096729  0.81369372  0.75949073    -0.11800
C701        C  0.34880348  0.77526962  0.76625313    -0.02900
C702        C  0.37594541  0.76950032  0.80022054     0.02600
C703        C  0.36202681  0.86807059  0.85660359     0.09500
N704        N  0.31952882  0.88461095  0.77936371     0.65800
H705        H  0.31015875  0.81842218  0.73354081     0.18700
N706        N  0.39414214  0.73058699  0.80902415     0.76300
H707        H  0.40071572  0.79655992  0.85579831     0.10300
C708        C  0.32982242  0.86784128  0.88480051     0.03900
C709        C  0.33143259  0.89478941  0.91795929    -0.04800
C710        C  0.36482372  0.92196797  0.92348709    -0.23200
C711        C  0.39683018  0.92231687  0.89488702     0.13200
C712        C  0.39528421  0.89518236  0.86178665    -0.12300
N713        N  0.29585166  0.83977580  0.88066241     0.64900
H714        H  0.30661639  0.89419180  0.93964747     0.12700
N715        N  0.43004056  0.95127004  0.89795241     0.61500
H716        H  0.41994757  0.89539572  0.83993272     0.08900
O717        O  0.43083370  0.72886826  0.82241320    -0.40000
O718        O  0.37197285  0.69865981  0.80943969    -0.39100
O719        O  0.34092227  0.91313715  0.76420410    -0.39100
O720        O  0.28098429  0.88825697  0.78067494    -0.36800
O721        O  0.46331670  0.94134357  0.91577466    -0.37700
O722        O  0.42805787  0.98457571  0.87828363    -0.33900
O723        O  0.29407618  0.80896677  0.90406237    -0.35300
O724        O  0.26403446  0.85038412  0.86063520    -0.39600
C725        C  0.26367317  0.30241506  0.47716525    -0.13300
C726        C  0.30240198  0.30166281  0.49658280     0.17100
C727        C  0.33784368  0.29821014  0.47321531     0.03400
C728        C  0.33429246  0.29536769  0.43050878    -0.11800
C729        C  0.29556267  0.29667281  0.41050327    -0.02900
C730        C  0.25975720  0.30018573  0.43435049     0.02600
C731        C  0.30499833  0.30134371  0.54154615     0.09500
N732        N  0.37779108  0.29729189  0.49242960     0.65800
H733        H  0.36077692  0.29111431  0.41387871     0.18700
N734        N  0.21933060  0.30151099  0.41619029     0.76300
H735        H  0.23642913  0.30469413  0.49541597     0.10300
C736        C  0.30043752  0.33752183  0.56417542     0.03900
C737        C  0.30222852  0.33592442  0.60695070    -0.04800
C738        C  0.30737637  0.29845779  0.62757791    -0.23200
C739        C  0.31234658  0.26213300  0.60478814     0.13200
C740        C  0.31089177  0.26395225  0.56187879    -0.12300
N741        N  0.29325538  0.37583350  0.54406080     0.64900
H742        H  0.29865294  0.36397896  0.62418286     0.12700
N743        N  0.31985196  0.22357842  0.62448449     0.61500
H744        H  0.31456679  0.23613243  0.54423884     0.08900
O745        O  0.19099568  0.27904488  0.43016320    -0.40000
O746        O  0.21031863  0.32944506  0.39095106    -0.39100
O747        O  0.39810638  0.26455884  0.49260854    -0.39100
O748        O  0.39494639  0.33033905  0.50399271    -0.36800
O749        O  0.35186619  0.21896367  0.64654833    -0.37700
O750        O  0.29833020  0.19254362  0.61453729    -0.33900
O751        O  0.25742502  0.39033676  0.54253223    -0.35300
O752        O  0.32331940  0.39764478  0.53292389    -0.39600
C753        C  0.30923626  0.54968530  0.76138623    -0.13300
C754        C  0.30426115  0.52983862  0.72354481     0.17100
C755        C  0.29656540  0.55293252  0.68777679     0.03400
C756        C  0.29595006  0.59551843  0.69010889    -0.11800
C757        C  0.30226680  0.61577798  0.72768317    -0.02900
C758        C  0.30837667  0.59241276  0.76388297     0.02600
C759        C  0.30563813  0.48488109  0.72213125     0.09500
N760        N  0.29043339  0.53359956  0.64871817     0.65800
H761        H  0.29142014  0.61288321  0.66205978     0.18700
N762        N  0.31621051  0.61103506  0.80296070     0.76300
H763        H  0.31430146  0.53186470  0.78912745     0.10300
C764        C  0.34096204  0.46339159  0.73509341     0.03900
C765        C  0.34068065  0.42059606  0.73401636    -0.04800
C766        C  0.30544352  0.39897311  0.72065530    -0.23200
C767        C  0.27037801  0.42062931  0.70708721     0.13200
C768        C  0.27066626  0.46329467  0.70830587    -0.12300
N769        N  0.37730930  0.48466745  0.74905540     0.64900
H770        H  0.36786381  0.40417226  0.74411998     0.12700
N771        N  0.23517132  0.40020956  0.68960713     0.61500
H772        H  0.24341314  0.47970432  0.69826279     0.08900
O773        O  0.35306782  0.61786999  0.81396191    -0.40000
O774        O  0.28966976  0.60681938  0.83037941    -0.39100
O775        O  0.25599749  0.53600279  0.63023692    -0.39100
O776        O  0.32070967  0.51892897  0.63038923    -0.36800
O777        O  0.23146140  0.39927309  0.65098903    -0.37700
O778        O  0.20322819  0.39681869  0.71070974    -0.33900
O779        O  0.38877840  0.48218107  0.78623280    -0.35300
O780        O  0.40046399  0.50181148  0.72344732    -0.39600
C781        C  0.14796050  0.13864924  0.62140752    -0.13300
C782        C  0.15287130  0.15851563  0.65927725     0.17100
C783        C  0.12550069  0.14981119  0.69106945     0.03400
C784        C  0.09553704  0.11927662  0.68546718    -0.11800
C785        C  0.09136541  0.09793823  0.64809837    -0.02900
C786        C  0.11722392  0.10874015  0.61539527     0.02600
C787        C  0.18782769  0.18694322  0.66588120     0.09500
N788        N  0.12722137  0.17236150  0.72877514     0.65800
H789        H  0.07519589  0.11250109  0.71056098     0.18700
N790        N  0.11360811  0.08894587  0.57639024     0.76300
H791        H  0.16868791  0.14577592  0.59671641     0.10300
C792        C  0.21964181  0.17784030  0.69434231     0.03900
C793        C  0.25010557  0.20725718  0.70302929    -0.04800
C794        C  0.25000088  0.24547214  0.68322197    -0.23200
C795        C  0.21885903  0.25375843  0.65331573     0.13200
C796        C  0.18822390  0.22431516  0.64493715    -0.12300
N797        N  0.22181617  0.13854442  0.71388275     0.64900
H798        H  0.27431709  0.20006483  0.72523493     0.12700
N799        N  0.21567940  0.29261126  0.63335019     0.61500
H800        H  0.16354052  0.23134753  0.62320802     0.08900
O801        O  0.13854001  0.06115769  0.56740782    -0.40000
O802        O  0.09090865  0.10426548  0.54856946    -0.39100
O803        O  0.11853694  0.20998568  0.72860423    -0.39100
O804        O  0.13019814  0.15353318  0.76257357    -0.36800
O805        O  0.20270392  0.32261456  0.65334712    -0.37700
O806        O  0.21385435  0.29399208  0.59462863    -0.33900
O807        O  0.22505098  0.10665322  0.69234731    -0.35300
O808        O  0.22627893  0.13612580  0.75239594    -0.39600
C809        C  0.33959560  0.21416478  0.84887678    -0.13300
C810        C  0.36357092  0.18136205  0.83636798     0.17100
C811        C  0.38065343  0.18184381  0.79703696     0.03400
C812        C  0.37265370  0.21485720  0.77047467    -0.11800
C813        C  0.34780663  0.24742849  0.78276390    -0.02900
C814        C  0.33163948  0.24709662  0.82263044     0.02600
C815        C  0.36738165  0.14607372  0.86443737     0.09500
N816        N  0.40404450  0.14805888  0.78290173     0.65800
H817        H  0.38417569  0.21402043  0.73954140     0.18700
N818        N  0.30667564  0.27976670  0.83685768     0.76300
H819        H  0.32645790  0.21387279  0.87918084     0.10300
C820        C  0.40149486  0.14197377  0.89137917     0.03900
C821        C  0.40061606  0.11247701  0.92267476    -0.04800
C822        C  0.36592051  0.08695952  0.92766568    -0.23200
C823        C  0.33264235  0.08982294  0.89909264     0.13200
C824        C  0.33349956  0.11957103  0.86816762    -0.12300
N825        N  0.43630307  0.16887511  0.88853959     0.64900
H826        H  0.42667777  0.11041806  0.94388171     0.12700
N827        N  0.29817436  0.06224529  0.90044012     0.61500
H828        H  0.30722957  0.12251986  0.84730679     0.08900
O829        O  0.32321081  0.31383568  0.84589163    -0.40000
O830        O  0.27041547  0.27224174  0.84799988    -0.39100
O831        O  0.38596262  0.11884822  0.76432569    -0.39100
O832        O  0.44274078  0.15110204  0.78191017    -0.36800
O833        O  0.26341584  0.07532634  0.91043678    -0.37700
O834        O  0.30107297  0.02661038  0.88580626    -0.33900
O835        O  0.43748749  0.20171043  0.90897861    -0.35300
O836        O  0.46844431  0.15657699  0.87162833    -0.39600
C837        C  0.17186280  0.36103036  0.90384225    -0.13300
C838        C  0.17186119  0.38916493  0.87139676     0.17100
C839        C  0.14200886  0.42007280  0.86951429     0.03400
C840        C  0.11106826  0.42082101  0.89887698    -0.11800
C841        C  0.10917297  0.39044695  0.92947647    -0.02900
C842        C  0.14083657  0.36129654  0.93269619     0.02600
C843        C  0.19795322  0.37982656  0.83636791     0.09500
N844        N  0.14101297  0.44882088  0.83637701     0.65800
H845        H  0.08701994  0.44346924  0.89610222     0.18700
N846        N  0.14118066  0.33088835  0.96434309     0.76300
H847        H  0.19478432  0.33713596  0.90533656     0.10300
C848        C  0.23767345  0.39650009  0.83255132     0.03900
C849        C  0.26404323  0.38033830  0.80341223    -0.04800
C850        C  0.25116570  0.34802424  0.77728454    -0.23200
C851        C  0.21072220  0.33197235  0.78101119     0.13200
C852        C  0.18471418  0.34822467  0.81018400    -0.12300
N853        N  0.25204441  0.42879178  0.85893182     0.64900
H854        H  0.29519823  0.39227086  0.80225846     0.12700
N855        N  0.19492813  0.29946590  0.75560042     0.61500
H856        H  0.15420602  0.33497005  0.81347187     0.08900
O857        O  0.15867809  0.33868058  0.99845314    -0.40000
O858        O  0.13037764  0.29451181  0.95595680    -0.39100
O859        O  0.11880998  0.44149245  0.80491398    -0.39100
O860        O  0.15681998  0.48403513  0.84128862    -0.36800
O861        O  0.19421608  0.26358585  0.77015981    -0.37700
O862        O  0.16926687  0.30824978  0.72743668    -0.33900
O863        O  0.27381433  0.42043330  0.89032025    -0.35300
O864        O  0.24936100  0.46551633  0.84701314    -0.39600
C865        C  0.67907592  0.28469390  0.53327636    -0.13300
C866        C  0.71577524  0.29148574  0.51240567     0.17100
C867        C  0.75194089  0.30134502  0.53507141     0.03400
C868        C  0.75104267  0.30326375  0.57796968    -0.11800
C869        C  0.71452277  0.29545353  0.59913320    -0.02900
C870        C  0.67799668  0.28688954  0.57621311     0.02600
C871        C  0.71504945  0.29060345  0.46687888     0.09500
N872        N  0.79002735  0.30838504  0.51498012     0.65800
H873        H  0.77921138  0.31067676  0.59492785     0.18700
N874        N  0.63976428  0.27902137  0.59573198     0.76300
H875        H  0.65089183  0.27802194  0.51603284     0.10300
C876        C  0.70356382  0.25489811  0.44488614     0.03900
C877        C  0.70103356  0.25583898  0.40186418    -0.04800
C878        C  0.71003616  0.29195678  0.38023371    -0.23200
C879        C  0.72137135  0.32765069  0.40230848     0.13200
C880        C  0.72371497  0.32672399  0.44524539    -0.12300
N881        N  0.69529667  0.21730363  0.46588162     0.64900
H882        H  0.69236607  0.22819513  0.38522930     0.12700
N883        N  0.73243366  0.36461625  0.38158497     0.61500
H884        H  0.73222267  0.35444522  0.46182630     0.08900
O885        O  0.61546216  0.30838466  0.60084250    -0.40000
O886        O  0.62541862  0.24292173  0.59556092    -0.39100
O887        O  0.80571277  0.34395196  0.51449699    -0.39100
O888        O  0.81091050  0.27828057  0.50350997    -0.36800
O889        O  0.70796290  0.39438305  0.38134076    -0.37700
O890        O  0.76953787  0.37071673  0.37251354    -0.33900
O891        O  0.65911243  0.20289456  0.46622664    -0.35300
O892        O  0.72473665  0.19620523  0.47991084    -0.39600
C893        C  0.55631963  0.25058860  0.70908874    -0.13300
C894        C  0.53605968  0.28769341  0.71575329     0.17100
C895        C  0.55924907  0.32433338  0.71805077     0.03400
C896        C  0.60183960  0.32355436  0.71332342    -0.11800
C897        C  0.62237077  0.28668811  0.70627193    -0.02900
C898        C  0.59926269  0.24952211  0.70394493     0.02600
C899        C  0.49061256  0.28828910  0.71958970     0.09500
N900        N  0.53973027  0.36280784  0.72422787     0.65800
H901        H  0.61910134  0.35215062  0.71536665     0.18700
N902        N  0.61833289  0.21083928  0.69583187     0.76300
H903        H  0.53842124  0.22240147  0.70724391     0.10300
C904        C  0.46432010  0.28040247  0.68551628     0.03900
C905        C  0.42184733  0.28576032  0.68877285    -0.04800
C906        C  0.40459908  0.29756016  0.72599224    -0.23200
C907        C  0.43075774  0.30459694  0.76058598     0.13200
C908        C  0.47347813  0.29975742  0.75699399    -0.12300
N909        N  0.48040389  0.26751720  0.64722260     0.64900
H910        H  0.40214814  0.28035688  0.66204107     0.12700
N911        N  0.41479103  0.31830825  0.79884636     0.61500
H912        H  0.49363429  0.30611079  0.78321578     0.08900
O913        O  0.60356820  0.17813784  0.71053674    -0.40000
O914        O  0.64804750  0.20865289  0.67168835    -0.39100
O915        O  0.54027048  0.37870964  0.75952310    -0.39100
O916        O  0.52826054  0.38383209  0.69359384    -0.36800
O917        O  0.38870985  0.34665987  0.79939700    -0.37700
O918        O  0.42982395  0.30516047  0.83235732    -0.33900
O919        O  0.48244347  0.22973128  0.63934436    -0.35300
O920        O  0.48520216  0.29332547  0.61879151    -0.39600
C921        C  0.68538002  0.14817337  0.88971638    -0.13300
C922        C  0.66120925  0.14992075  0.85361585     0.17100
C923        C  0.62999506  0.12024275  0.84689386     0.03400
C924        C  0.62272724  0.08993402  0.87661118    -0.11800
C925        C  0.64701131  0.08785793  0.91284644    -0.02900
C926        C  0.67874325  0.11741017  0.91913477     0.02600
C927        C  0.67074049  0.18103484  0.82182741     0.09500
N928        N  0.60687148  0.11937922  0.80906899     0.65800
H929        H  0.59877417  0.06717189  0.87073457     0.18700
N930        N  0.70411590  0.11702073  0.95551048     0.76300
H931        H  0.70981833  0.17058878  0.89487396     0.10300
C932        C  0.64955823  0.21839154  0.81901576     0.03900
C933        C  0.65831120  0.24616963  0.78731006    -0.04800
C934        C  0.68756136  0.23711204  0.75753376    -0.23200
C935        C  0.70904401  0.19962003  0.76093910     0.13200
C936        C  0.70051490  0.17222756  0.79291442    -0.12300
N937        N  0.61935746  0.22864660  0.84838412     0.64900
H938        H  0.64255909  0.27523905  0.78644890     0.12700
N939        N  0.73803989  0.18757963  0.73105338     0.61500
H940        H  0.71661770  0.14332727  0.79462811     0.08900
O941        O  0.69373719  0.13733749  0.98646382    -0.40000
O942        O  0.73963756  0.10188943  0.95450822    -0.39100
O943        O  0.61939288  0.09859246  0.77928881    -0.39100
O944        O  0.57513408  0.14099528  0.80466041    -0.36800
O945        O  0.77560002  0.18511573  0.74138006    -0.37700
O946        O  0.72512158  0.16896243  0.69932677    -0.33900
O947        O  0.63062848  0.24002349  0.88393241    -0.35300
O948        O  0.58214719  0.23205811  0.83713401    -0.39600
C949        C  0.84423859  0.21738779  0.65243886    -0.13300
C950        C  0.82954554  0.18237903  0.63206289     0.17100
C951        C  0.78826172  0.18014812  0.61843680     0.03400
C952        C  0.76155822  0.21206987  0.62767963    -0.11800
C953        C  0.77551170  0.24577630  0.65114720    -0.02900
C954        C  0.81768357  0.24899668  0.66222907     0.02600
C955        C  0.85680078  0.14685440  0.63054180     0.09500
N956        N  0.77261760  0.14460373  0.59754946     0.65800
H957        H  0.72927683  0.20918211  0.61897036     0.18700
N958        N  0.83431693  0.28393058  0.68344447     0.76300
H959        H  0.87622531  0.21931152  0.66252432     0.10300
C960        C  0.88488722  0.14219449  0.59884178     0.03900
C961        C  0.91450850  0.11149792  0.60168500    -0.04800
C962        C  0.91725991  0.08592314  0.63645211    -0.23200
C963        C  0.88866620  0.09063692  0.66809590     0.13200
C964        C  0.85856694  0.12076777  0.66467682    -0.12300
N965        N  0.88491153  0.16972456  0.56469964     0.64900
H966        H  0.93638897  0.10870756  0.57725630     0.12700
N967        N  0.89009723  0.06563073  0.70415024     0.61500
H968        H  0.83738101  0.12489894  0.68954315     0.08900
O969        O  0.85518842  0.30959563  0.66341393    -0.40000
O970        O  0.84023614  0.28167842  0.72178703    -0.39100
O971        O  0.75630570  0.11587229  0.61769173    -0.39100
O972        O  0.77011144  0.14434080  0.55884745    -0.36800
O973        O  0.86758559  0.03394205  0.70605129    -0.37700
O974        O  0.90808012  0.07891589  0.73627478    -0.33900
O975        O  0.90972179  0.19976224  0.56452515    -0.35300
O976        O  0.86407172  0.16109973  0.53268368    -0.39600
C977        C  0.83484869  0.38528805  0.77070268    -0.13300
C978        C  0.83802407  0.36461614  0.80834903     0.17100
C979        C  0.80838006  0.33471629  0.81818645     0.03400
C980        C  0.77730451  0.32440273  0.78970308    -0.11800
C981        C  0.77494097  0.34336675  0.75102640    -0.02900
C982        C  0.80374986  0.37483873  0.74169747     0.02600
C983        C  0.87309751  0.37295783  0.83689467     0.09500
N984        N  0.80957190  0.31451381  0.85714262     0.65800
H985        H  0.75504191  0.30088457  0.79773780     0.18700
N986        N  0.80275761  0.39582283  0.70303098     0.76300
H987        H  0.85756954  0.40854298  0.76323957     0.10300
C988        C  0.90669602  0.34614437  0.83919373     0.03900
C989        C  0.93606123  0.35036494  0.87104161    -0.04800
C990        C  0.93328902  0.38187200  0.90024692    -0.23200
C991        C  0.90102786  0.41040846  0.89609133     0.13200
C992        C  0.87092387  0.40534126  0.86490047    -0.12300
N993        N  0.91110362  0.31432035  0.80951499     0.64900
H994        H  0.96098844  0.32861301  0.87312965     0.12700
N995        N  0.89715779  0.44338514  0.92448529     0.61500
H996        H  0.84514333  0.42610795  0.86319339     0.08900
O997        O  0.80256298  0.37596890  0.66983216    -0.40000
O998        O  0.80626630  0.43437921  0.70207816    -0.39100
O999        O  0.79196835  0.33048562  0.88721261    -0.39100
O1000       O  0.82176943  0.27799340  0.85970276    -0.36800
O1001       O  0.91782307  0.47594428  0.91958626    -0.37700
O1002       O  0.86891461  0.44242270  0.95043220    -0.33900
O1003       O  0.92777726  0.32238808  0.77578994    -0.35300
O1004       O  0.90477151  0.27742905  0.81949916    -0.39600
C1005       C  0.68270239  0.72095658  0.53129669    -0.13300
C1006       C  0.71407010  0.70109673  0.51042912     0.17100
C1007       C  0.74652377  0.68302502  0.53379564     0.03400
C1008       C  0.74789139  0.68736349  0.57667260    -0.11800
C1009       C  0.71579354  0.70638083  0.59693966    -0.02900
C1010       C  0.68196981  0.72147240  0.57398659     0.02600
C1011       C  0.71306252  0.70151648  0.46456892     0.09500
N1012       N  0.77690939  0.65834927  0.51485888     0.65800
H1013       H  0.77291619  0.67390340  0.59442853     0.18700
N1014       N  0.64637131  0.73722505  0.59329309     0.76300
H1015       H  0.65831266  0.73644507  0.51454724     0.10300
C1016       C  0.67584287  0.69658139  0.44158631     0.03900
C1017       C  0.67576166  0.70100861  0.39898799    -0.04800
C1018       C  0.71239077  0.70634245  0.37762705    -0.23200
C1019       C  0.74997621  0.70996988  0.40037405     0.13200
C1020       C  0.74941590  0.70976851  0.44339197    -0.12300
N1021       N  0.63799187  0.68548343  0.46061853     0.64900
H1022       H  0.64662859  0.69848606  0.38230254     0.12700
N1023       N  0.78906642  0.71168696  0.38091026     0.61500
H1024       H  0.77801907  0.71494112  0.46034121     0.08900
O1025       O  0.61250572  0.71833281  0.58861438    -0.40000
O1026       O  0.64617527  0.77403216  0.60500243    -0.39100
O1027       O  0.81465408  0.66491937  0.52250279    -0.39100
O1028       O  0.76597342  0.62680921  0.49483247    -0.36800
O1029       O  0.79792897  0.68510442  0.35458097    -0.37700
O1030       O  0.81689059  0.73582512  0.39424035    -0.33900
O1031       O  0.60600298  0.70615404  0.45347484    -0.35300
O1032       O  0.63536663  0.65249773  0.48074770    -0.39600
C1033       C  0.46915322  0.69307806  0.71671830    -0.13300
C1034       C  0.48408370  0.72611563  0.69347128     0.17100
C1035       C  0.45632879  0.75632789  0.67919314     0.03400
C1036       C  0.41494404  0.75344861  0.69018065    -0.11800
C1037       C  0.40018167  0.71921930  0.71161715    -0.02900
C1038       C  0.42745628  0.68810224  0.72381316     0.02600
C1039       C  0.52859908  0.72635101  0.68460419     0.09500
N1040       N  0.46875814  0.78828264  0.65165518     0.65800
H1041       H  0.39360089  0.77655207  0.67949274     0.18700
N1042       N  0.41365735  0.65080928  0.74255086     0.76300
H1043       H  0.48995436  0.66970962  0.72811288     0.10300
C1044       C  0.55476354  0.76047132  0.69184379     0.03900
C1045       C  0.59730367  0.75571728  0.68907771    -0.04800
C1046       C  0.61491806  0.71665725  0.68509917    -0.23200
C1047       C  0.58821159  0.68317214  0.67507413     0.13200
C1048       C  0.54591885  0.68911074  0.67304436    -0.12300
N1049       N  0.53938195  0.79907984  0.70526343     0.64900
H1050       H  0.61658365  0.78274806  0.69243417     0.12700
N1051       N  0.60222331  0.64238930  0.66839110     0.61500
H1052       H  0.52613508  0.66305153  0.66554240     0.08900
O1053       O  0.42949793  0.64029512  0.77663304    -0.40000
O1054       O  0.39715466  0.62345140  0.72011892    -0.39100
O1055       O  0.48875623  0.77966201  0.62009653    -0.39100
O1056       O  0.45532394  0.82416812  0.65590555    -0.39200
O1057       O  0.60168252  0.61728692  0.69783503    -0.37700
O1058       O  0.60102357  0.62844291  0.63224289    -0.33900
O1059       O  0.51904695  0.80093063  0.73775323    -0.35300
O1060       O  0.55168532  0.83187620  0.68867582    -0.39600
C1061       C  0.69144897  0.54932410  0.73549379    -0.13300
C1062       C  0.71115122  0.52637222  0.70528648     0.17100
C1063       C  0.73229781  0.54784846  0.67407198     0.03400
C1064       C  0.73015847  0.59062064  0.67167980    -0.11800
C1065       C  0.71096427  0.61308835  0.70210611    -0.02900
C1066       C  0.69303892  0.59228896  0.73530495     0.02600
C1067       C  0.70806682  0.48047430  0.70517934     0.09500
N1068       N  0.75816726  0.52696859  0.64611443     0.65800
H1069       H  0.74567616  0.60664569  0.64716673     0.18700
N1070       N  0.67829226  0.61404125  0.77002169     0.76300
H1071       H  0.67457749  0.53411505  0.75947889     0.10300
C1072       C  0.71201824  0.45642962  0.74128766     0.03900
C1073       C  0.71125151  0.41352269  0.73860669    -0.04800
C1074       C  0.70941464  0.39358438  0.70042184    -0.23200
C1075       C  0.70292000  0.41745659  0.66467311     0.13200
C1076       C  0.70088163  0.46015438  0.66763987    -0.12300
N1077       N  0.71918243  0.47469848  0.78069276     0.64900
H1078       H  0.71416812  0.39575556  0.76660803     0.12700
N1079       N  0.70161528  0.39946616  0.62468064     0.61500
H1080       H  0.69542350  0.47765144  0.63980388     0.08900
O1081       O  0.69650201  0.60983917  0.80435914    -0.40000
O1082       O  0.64320207  0.63013416  0.76856816    -0.39100
O1083       O  0.75383225  0.53276121  0.60795411    -0.39100
O1084       O  0.78955126  0.50853519  0.65972929    -0.36800
O1085       O  0.66908013  0.40165741  0.60293351    -0.37700
O1086       O  0.73492947  0.39066907  0.60782512    -0.33900
O1087       O  0.69343836  0.46917641  0.80867205    -0.35300
O1088       O  0.75401123  0.49016222  0.78955753    -0.39600
C1089       C  0.67783474  0.83368344  0.77966259    -0.13300
C1090       C  0.65396067  0.81975382  0.81209364     0.17100
C1091       C  0.63611347  0.78021668  0.81013332     0.03400
C1092       C  0.64484467  0.75437679  0.77712012    -0.11800
C1093       C  0.67136561  0.76746126  0.74610882    -0.02900
C1094       C  0.68670249  0.80810934  0.74689457     0.02600
C1095       C  0.64767505  0.84798161  0.84678574     0.09500
N1096       N  0.61077050  0.76531748  0.84228920     0.65800
H1097       H  0.63246596  0.72338153  0.77667538     0.18700
N1098       N  0.70886074  0.82513824  0.71347091     0.76300
H1099       H  0.68982565  0.86484452  0.77981962     0.10300
C1100       C  0.68168658  0.86465935  0.86879485     0.03900
C1101       C  0.67587737  0.89580956  0.89733938    -0.04800
C1102       C  0.63645409  0.91107429  0.90471125    -0.23200
C1103       C  0.60228754  0.89400734  0.88276575     0.13200
C1104       C  0.60818406  0.86253026  0.85430184    -0.12300
N1105       N  0.72241810  0.85019007  0.86236743     0.64900
H1106       H  0.70258240  0.90789836  0.91396808     0.12700
N1107       N  0.56162828  0.90907457  0.88784135     0.61500
H1108       H  0.58200911  0.85066052  0.83667017     0.08900
O1109       O  0.74764820  0.82388606  0.71449392    -0.40000
O1110       O  0.69153707  0.85247741  0.69202509    -0.39100
O1111       O  0.57270414  0.75982870  0.83568653    -0.39100
O1112       O  0.62710046  0.75295047  0.87549298    -0.36800
O1113       O  0.53474746  0.88640108  0.90399851    -0.37700
O1114       O  0.55082959  0.94162568  0.86979541    -0.33900
O1115       O  0.74882852  0.87349277  0.84628639    -0.35300
O1116       O  0.73349722  0.81647703  0.87784070    -0.39600
C1117       C  0.79496243  0.67386073  0.82435638    -0.13300
C1118       C  0.82731520  0.64851169  0.81345222     0.17100
C1119       C  0.82887660  0.63326752  0.77312097     0.03400
C1120       C  0.79800429  0.64371339  0.74430882    -0.11800
C1121       C  0.76567289  0.66948866  0.75516399    -0.02900
C1122       C  0.76450828  0.68477882  0.79561497     0.02600
C1123       C  0.86052109  0.64159338  0.84420899     0.09500
N1124       N  0.86192013  0.60783474  0.76092358     0.65800
H1125       H  0.79998737  0.63270483  0.71306717     0.18700
N1126       N  0.73274489  0.71158119  0.80815068     0.76300
H1127       H  0.79393494  0.68612230  0.85523149     0.10300
C1128       C  0.89595474  0.66678251  0.84481175     0.03900
C1129       C  0.92372660  0.66486671  0.87808123    -0.04800
C1130       C  0.91695214  0.63801187  0.91095434    -0.23200
C1131       C  0.88188648  0.61211435  0.91008562     0.13200
C1132       C  0.85401657  0.61400544  0.87658559    -0.12300
N1133       N  0.90298281  0.69598507  0.81288748     0.64900
H1134       H  0.95046872  0.68500064  0.87854004     0.12700
N1135       N  0.87233875  0.58660619  0.94444983     0.61500
H1136       H  0.82614332  0.59545045  0.87679287     0.08900
O1137       O  0.74134152  0.74892858  0.81428976    -0.40000
O1138       O  0.70084632  0.69639309  0.82377715    -0.39100
O1139       O  0.85970539  0.56963662  0.76681353    -0.39100
O1140       O  0.88947654  0.62231833  0.73820171    -0.36800
O1141       O  0.86536470  0.54881581  0.93923361    -0.37700
O1142       O  0.86453790  0.60281965  0.97852565    -0.33900
O1143       O  0.88461970  0.72985649  0.81327725    -0.35300
O1144       O  0.93258638  0.69113556  0.78902896    -0.39600
C1145       C  0.80821697  0.81413644  0.61749030    -0.13300
C1146       C  0.84564843  0.80724003  0.63829902     0.17100
C1147       C  0.84944491  0.77260687  0.66400645     0.03400
C1148       C  0.81495780  0.74789914  0.67118969    -0.11800
C1149       C  0.77686390  0.75607336  0.65203684    -0.02900
C1150       C  0.77412851  0.78857732  0.62337546     0.02600
C1151       C  0.87742666  0.84013235  0.63837754     0.09500
N1152       N  0.88794176  0.76265502  0.68351104     0.65800
H1153       H  0.81783547  0.72232734  0.69232264     0.18700
N1154       N  0.73671974  0.79850762  0.60212785     0.76300
H1155       H  0.80442349  0.84114910  0.59845287     0.10300
C1156       C  0.89009254  0.85926833  0.60183750     0.03900
C1157       C  0.91592160  0.89379797  0.60382437    -0.04800
C1158       C  0.92975006  0.90979459  0.64173917    -0.23200
C1159       C  0.91688512  0.89060733  0.67834153     0.13200
C1160       C  0.89091623  0.85630271  0.67626766    -0.12300
N1161       N  0.87692633  0.84409034  0.56248079     0.64900
H1162       H  0.92545858  0.90788686  0.57538052     0.12700
N1163       N  0.92908618  0.90587494  0.71795025     0.61500
H1164       H  0.88005321  0.84308919  0.70464122     0.08900
O1165       O  0.73577823  0.79647483  0.56343082    -0.40000
O1166       O  0.71209932  0.82221431  0.61927084    -0.39100
O1167       O  0.89024910  0.75780054  0.72193431    -0.39100
O1168       O  0.91843539  0.75410613  0.66193107    -0.36800
O1169       O  0.90751476  0.93249183  0.73516717    -0.37700
O1170       O  0.95749119  0.88842741  0.73814229    -0.33900
O1171       O  0.85676139  0.86688139  0.53821579    -0.35300
O1172       O  0.88963602  0.80996975  0.55007280    -0.39600
loop_ 
_geom_bond_atom_site_label_1 
_geom_bond_atom_site_label_2 
_geom_bond_distance 
_geom_bond_site_symmetry_2 
_ccdc_geom_bond_type 
C1            H2   1.099       .  S
C1            C7   1.541       .  S
C1            C6   1.540       .  S
C1            C5   1.526       .  S
C3            H4   1.109       .  S
C3            C9   1.535       .  S
C3            C8   1.538       .  S
C3           C10   1.527       .  S
C5            C8   1.367       .  D
C5         C1009   1.474       .  S
C6            C9   1.387       .  D
C6         C1046   1.500       .  S
C7           C10   1.368       .  D
C7         C1065   1.478       .  S
C8         C1149   1.481       .  S
C9         C1093   1.485       .  S
C10        C1121   1.485       .  S
C11          H12   1.107       .  S
C11          C17   1.531       .  S
C11          C16   1.535       .  S
C11          C15   1.537       .  S
C13          H14   1.105       .  S
C13          C19   1.543       .  S
C13          C18   1.543       .  S
C13          C20   1.541       .  S
C15          C18   1.380       .  D
C15         C934   1.500       .  S
C16          C19   1.379       .  D
C16         C981   1.491       .  S
C17          C20   1.373       .  D
C17         C953   1.482       .  S
C18         C897   1.490       .  S
C19        C1074   1.495       .  S
C20         C869   1.492       .  S
C21          H22   1.112       .  S
C21          C27   1.536       .  S
C21          C26   1.535       .  S
C21          C25   1.532       .  S
C23          H24   1.105       .  S
C23          C29   1.536       .  S
C23          C28   1.538       .  S
C23          C30   1.530       .  S
C25          C28   1.375       .  D
C25         C738   1.475       .  S
C26          C29   1.373       .  D
C26         C906   1.488       .  S
C27          C30   1.374       .  D
C27         C766   1.472       .  S
C28         C794   1.484       .  S
C29         C813   1.483       .  S
C30         C850   1.493       .  S
C31          H32   1.109       .  S
C31          C37   1.525       .  S
C31          C36   1.526       .  S
C31          C35   1.527       .  S
C33          H34   1.110       .  S
C33          C39   1.534       .  S
C33          C38   1.527       .  S
C33          C40   1.532       .  S
C35          C38   1.369       .  D
C35         C701   1.471       .  S
C36          C39   1.373       .  D
C36         C654   1.469       .  S
C37          C40   1.367       .  D
C37         C673   1.475       .  S
C38        C1037   1.468       .  S
C39         C757   1.480       .  S
C40         C617   1.467       .  S
C41          H42   1.106       .  S
C41          C47   1.537       .  S
C41          C46   1.538       .  S
C41          C45   1.544       .  S
C43          H44   1.109       .  S
C43          C49   1.538       .  S
C43          C48   1.527       .  S
C43          C50   1.532       .  S
C45          C48   1.374       .  D
C45         C626   1.478       .  S
C46          C49   1.377       .  D
C46         C505   1.488       .  S
C47          C50   1.368       .  D
C47         C486   1.486       .  S
C48         C589   1.487       .  S
C49         C561   1.481       .  S
C50         C542   1.479       .  S
C51          H52   1.109       .  S
C51          C57   1.535       .  S
C51          C56   1.531       .  S
C51          C55   1.530       .  S
C53          H54   1.106       .  S
C53          C59   1.528       .  S
C53          C58   1.542       .  S
C53          C60   1.542       .  S
C55          C58   1.375       .  D
C55         C430   1.496       .  S
C56          C59   1.369       .  D
C56         C402   1.469       .  S
C57          C60   1.378       .  D
C57         C449   1.479       .  S
C58         C514   1.481       .  S
C59         C374   1.485       .  S
C60        C1018   1.492       .  S
C61          H62   1.111       .  S
C61          C67   1.532       .  S
C61          C66   1.539       .  S
C61          C65   1.534       .  S
C63          H64   1.105       .  S
C63          C69   1.535       .  S
C63          C68   1.550       .  S
C63          C70   1.549       .  S
C65          C68   1.381       .  D
C65         C309   1.495       .  S
C66          C69   1.373       .  D
C66         C281   1.486       .  S
C67          C70   1.374       .  D
C67         C337   1.487       .  S
C68         C253   1.503       .  S
C69         C477   1.490       .  S
C70         C729   1.485       .  S
C71          H72   1.104       .  S
C71          C77   1.538       .  S
C71          C76   1.543       .  S
C71          C75   1.535       .  S
C73          H74   1.110       .  S
C73          C79   1.537       .  S
C73          C78   1.535       .  S
C73          C80   1.537       .  S
C75          C78   1.368       .  D
C75         C878   1.486       .  S
C76          C79   1.376       .  D
C76         C262   1.484       .  S
C77          C80   1.376       .  D
C77         C365   1.488       .  S
C78         C225   1.481       .  S
C79         C169   1.489       .  S
C80         C197   1.485       .  S
O81          V89   1.889       .  S
O81          C91   1.262       .  A
O82          V89   1.889   1_665  S
O82          C92   1.262       .  A
O83          V89   1.901   1_655  S
O83          C93   1.265       .  A
O84          V89   1.902   1_565  S
O84          C94   1.265       .  A
O85          V90   1.898   1_455  S
O85          C94   1.264       .  A
O86          V90   1.891   1_545  S
O86          C93   1.263       .  A
O87          V90   1.893       .  S
O87          C92   1.265       .  A
O88          V90   1.893   1_445  S
O88          C91   1.262       .  A
V89          V90   2.083   1_445  T
C91         C346   1.460       .  S
C92         C458   1.476       .  S
C93         C234   1.476       .  S
C94         C598   1.474       .  S
O95         V103   1.898   1_565  S
O95         C105   1.264       .  A
O96         V103   1.898   1_655  S
O96         C106   1.264       .  A
O97         V103   1.884   1_665  S
O97         C107   1.260       .  A
O98         V103   1.883       .  S
O98         C108   1.262       .  A
O99         V104   1.903       .  S
O99         C108   1.265       .  A
O100        V104   1.898   1_665  S
O100        C107   1.266       .  A
O101        V104   1.893   1_655  S
O101        C106   1.263       .  A
O102        V104   1.892   1_565  S
O102        C105   1.262       .  A
V103        V104   2.085       .  T
C105        C682   1.471       .  S
C106        C962   1.478       .  S
C107       C1158   1.478       .  S
C108        C785   1.478       .  S
O109        V117   1.891   1_566  S
O109        C119   1.263       .  A
O110        V117   1.899       .  S
O110        C120   1.264       .  A
O111        V117   1.900   1_565  S
O111        C121   1.264       .  A
O112        V117   1.899   1_556  S
O112        C122   1.265       .  A
O113        V118   1.896   1_556  S
O113        C122   1.264       .  A
O114        V118   1.891   1_565  S
O114        C121   1.264       .  A
O115        V118   1.890       .  S
O115        C120   1.263       .  A
O116        V118   1.887   1_566  S
O116        C119   1.262       .  A
V117        V118   2.087       .  T
C119        C710   1.467       .  S
C120        C318   1.474       .  S
C121        C570   1.477       .  S
C122        C822   1.481       .  S
O123        V131   1.895   1_654  S
O123        C133   1.264       .  A
O124        V131   1.891       .  S
O124        C134   1.263       .  A
O125        V131   1.890   1_554  S
O125        C135   1.264       .  A
O126        V131   1.894   1_655  S
O126        C136   1.264       .  A
O127        V132   1.909   1_656  S
O127        C136   1.267       .  A
O128        V132   1.911       .  S
O128        C135   1.267       .  A
O129        V132   1.904   1_556  S
O129        C134   1.264       .  A
O130        V132   1.902   1_655  S
O130        C133   1.266       .  A
V131        V132   2.083   1_556  T
C133        C206   1.488       .  S
C134        C841   1.475       .  S
C135        C290   1.488       .  S
C136        C990   1.485       .  S
O137        V145   1.912   1_554  S
O137        C147   1.266       .  A
O138        V145   1.909   1_545  S
O138        C148   1.267       .  A
O139        V145   1.902       .  S
O139        C149   1.265       .  A
O140        V145   1.903   1_544  S
O140        C150   1.265       .  A
O141        V146   1.896   1_544  S
O141        C150   1.263       .  A
O142        V146   1.892       .  S
O142        C149   1.265       .  A
O143        V146   1.906   1_545  S
O143        C148   1.266       .  A
O144        V146   1.899   1_554  S
O144        C147   1.264       .  A
V145        V146   2.081       .  T
C147        C421   1.477       .  S
C148        C925   1.490       .  S
C149       C1102   1.485       .  S
C150        C178   1.471       .  S
O151        V159   1.894   1_655  S
O151        C161   1.263       .  A
O152        V159   1.898   1_554  S
O152        C162   1.264       .  A
O153        V159   1.887       .  S
O153        C163   1.261       .  A
O154        V159   1.892   1_654  S
O154        C164   1.263       .  A
O155        V160   1.885   1_655  S
O155        C164   1.262       .  A
O156        V160   1.890   1_556  S
O156        C163   1.261       .  A
O157        V160   1.903       .  S
O157        C162   1.266       .  A
O158        V160   1.904   1_656  S
O158        C161   1.265       .  A
V159        V160   2.088   1_556  T
C161       C1130   1.473       .  S
C162        C533   1.482       .  S
C163        C645   1.453       .  S
C164        C393   1.467       .  S
C165        C166   1.400       .  A
C165        C170   1.398       .  A
C165        H175   1.084       .  S
C166        C171   1.480       .  S
C166        C167   1.408       .  A
C167        C168   1.401       .  A
C167        N172   1.429       .  S
C168        C169   1.405       .  A
C168        H173   1.082       .  S
C169        C170   1.414       .  A
C170        N174   1.429       .  S
C171        C176   1.411       .  A
C171        C180   1.402       .  A
N172        O187   1.262       .  A
N172        O188   1.262       .  A
N174        O185   1.261       .  A
N174        O186   1.262       .  A
C176        C177   1.401       .  A
C176        N181   1.429       .  S
C177        C178   1.402       .  A
C177        H182   1.084       .  S
C178        C179   1.409       .  A
C179        C180   1.399       .  A
C179        N183   1.429       .  S
C180        H184   1.084       .  S
N181        O191   1.262       .  A
N181        O192   1.262       .  A
N183        O189   1.262       .  A
N183        O190   1.262       .  A
C193        C194   1.400       .  A
C193        C198   1.395       .  A
C193        H203   1.084       .  S
C194        C199   1.481       .  S
C194        C195   1.413       .  A
C195        C196   1.405       .  A
C195        N200   1.433       .  S
C196        C197   1.403       .  A
C196        H201   1.084       .  S
C197        C198   1.408       .  A
C198        N202   1.428       .  S
C199        C204   1.408       .  A
C199        C208   1.400       .  A
N200        O215   1.262       .  A
N200        O216   1.262       .  A
N202        O213   1.262       .  A
N202        O214   1.262       .  A
C204        C205   1.403       .  A
C204        N209   1.429       .  S
C205        C206   1.408       .  A
C205        H210   1.084       .  S
C206        C207   1.416       .  A
C207        C208   1.397       .  A
C207        N211   1.429       .  S
C208        H212   1.084       .  S
N209        O219   1.262       .  A
N209        O220   1.262       .  A
N211        O217   1.262       .  A
N211        O218   1.262       .  A
C221        C222   1.399       .  A
C221        C226   1.396       .  A
C221        H231   1.084       .  S
C222        C227   1.469       .  S
C222        C223   1.405       .  A
C223        C224   1.399       .  A
C223        N228   1.428       .  S
C224        C225   1.405       .  A
C224        H229   1.083       .  S
C225        C226   1.409       .  A
C226        N230   1.429       .  S
C227        C232   1.404       .  A
C227        C236   1.400       .  A
N228        O243   1.262       .  A
N228        O244   1.262       .  A
N230        O241   1.262       .  A
N230        O242   1.262       .  A
C232        C233   1.396       .  A
C232        N237   1.429       .  S
C233        C234   1.406       .  A
C233        H238   1.084       .  S
C234        C235   1.413       .  A
C235        C236   1.400       .  A
C235        N239   1.429       .  S
C236        H240   1.084       .  S
N237        O247   1.262       .  A
N237        O248   1.261       .  A
N239        O245   1.262       .  A
N239        O246   1.262       .  A
C249        C250   1.408       .  A
C249        C254   1.403       .  A
C249        H259   1.079       .  S
C250        C255   1.500       .  S
C250        C251   1.415       .  A
C251        C252   1.406       .  A
C251        N256   1.437       .  S
C252        C253   1.407       .  A
C252        H257   1.038       .  S
C253        C254   1.416       .  A
C254        N258   1.437       .  S
C255        C260   1.420       .  A
C255        C264   1.407       .  A
N256        O271   1.263       .  A
N256        O272   1.263       .  A
N258        O269   1.263       .  A
N258        O270   1.262       .  A
C260        C261   1.403       .  A
C260        N265   1.436       .  S
C261        C262   1.401       .  A
C261        H266   1.084       .  S
C262        C263   1.413       .  A
C263        C264   1.400       .  A
C263        N267   1.435       .  S
C264        H268   1.083       .  S
N265        O275   1.262       .  A
N265        O276   1.263       .  A
N267        O273   1.259       .  A
N267        O274   1.261       .  A
C277        C278   1.399       .  A
C277        C282   1.402       .  A
C277        H287   1.084       .  S
C278        C283   1.477       .  S
C278        C279   1.407       .  A
C279        C280   1.399       .  A
C279        N284   1.429       .  S
C280        C281   1.402       .  A
C280        H285   1.081       .  S
C281        C282   1.412       .  A
C282        N286   1.427       .  S
C283        C288   1.405       .  A
C283        C292   1.401       .  A
N284        O299   1.262       .  A
N284        O300   1.262       .  A
N286        O297   1.262       .  A
N286        O298   1.261       .  A
C288        C289   1.397       .  A
C288        N293   1.430       .  S
C289        C290   1.408       .  A
C289        H294   1.084       .  S
C290        C291   1.416       .  A
C291        C292   1.405       .  A
C291        N295   1.429       .  S
C292        H296   1.084       .  S
N293        O303   1.262       .  A
N293        O304   1.262       .  A
N295        O301   1.262       .  A
N295        O302   1.262       .  A
C305        C306   1.398       .  A
C305        C310   1.402       .  A
C305        H315   1.084       .  S
C306        C311   1.472       .  S
C306        C307   1.404       .  A
C307        C308   1.394       .  A
C307        N312   1.433       .  S
C308        C309   1.405       .  A
C308        H313   1.079       .  S
C309        C310   1.419       .  A
C310        N314   1.429       .  S
C311        C316   1.405       .  A
C311        C320   1.400       .  A
N312        O327   1.262       .  A
N312        O328   1.262       .  A
N314        O325   1.262       .  A
N314        O326   1.259       .  A
C316        C317   1.400       .  A
C316        N321   1.428       .  S
C317        C318   1.405       .  A
C317        H322   1.084       .  S
C318        C319   1.413       .  A
C319        C320   1.395       .  A
C319        N323   1.430       .  S
C320        H324   1.084       .  S
N321        O331   1.262       .  A
N321        O332   1.262       .  A
N323        O329   1.262       .  A
N323        O330   1.262       .  A
C333        C334   1.396       .  A
C333        C338   1.398       .  A
C333        H343   1.084       .  S
C334        C339   1.467       .  S
C334        C335   1.403       .  A
C335        C336   1.393       .  A
C335        N340   1.430       .  S
C336        C337   1.406       .  A
C336        H341   1.083       .  S
C337        C338   1.419       .  A
C338        N342   1.427       .  S
C339        C344   1.408       .  A
C339        C348   1.400       .  A
N340        O355   1.262       .  A
N340        O356   1.262       .  A
N342        O353   1.261       .  A
N342        O354   1.260       .  A
C344        C345   1.395       .  A
C344        N349   1.429       .  S
C345        C346   1.400       .  A
C345        H350   1.084       .  S
C346        C347   1.409       .  A
C347        C348   1.396       .  A
C347        N351   1.429       .  S
C348        H352   1.084       .  S
N349        O359   1.262       .  A
N349        O360   1.262       .  A
N351        O357   1.261       .  A
N351        O358   1.261       .  A
C361        C362   1.393       .  A
C361        C366   1.393       .  A
C361        H371   1.085       .  S
C362        C367   1.467       .  S
C362        C363   1.403       .  A
C363        C364   1.399       .  A
C363        N368   1.429       .  S
C364        C365   1.410       .  A
C364        H369   1.083       .  S
C365        C366   1.416       .  A
C366        N370   1.428       .  S
C367        C372   1.405       .  A
C367        C376   1.397       .  A
N368        O383   1.262       .  A
N368        O384   1.262       .  A
N370        O381   1.262       .  A
N370        O382   1.260       .  A
C372        C373   1.395       .  A
C372        N377   1.429       .  S
C373        C374   1.404       .  A
C373        H378   1.083       .  S
C374        C375   1.416       .  A
C375        C376   1.399       .  A
C375        N379   1.429       .  S
C376        H380   1.084       .  S
N377        O387   1.262       .  A
N377        O388   1.262       .  A
N379        O385   1.261       .  A
N379        O386   1.262       .  A
C389        C390   1.399       .  A
C389        C394   1.395       .  A
C389        H399   1.084       .  S
C390        C395   1.460       .  S
C390        C391   1.402       .  A
C391        C392   1.393       .  A
C391        N396   1.428       .  S
C392        C393   1.405       .  A
C392        H397   1.084       .  S
C393        C394   1.411       .  A
C394        N398   1.430       .  S
C395        C400   1.404       .  A
C395        C404   1.399       .  A
N396        O411   1.262       .  A
N396        O412   1.261       .  A
N398        O409   1.262       .  A
N398        O410   1.262       .  A
C400        C401   1.395       .  A
C400        N405   1.430       .  S
C401        C402   1.402       .  A
C401        H406   1.084       .  S
C402        C403   1.406       .  A
C403        C404   1.394       .  A
C403        N407   1.429       .  S
C404        H408   1.084       .  S
N405        O415   1.262       .  A
N405        O416   1.262       .  A
N407        O413   1.262       .  A
N407        O414   1.262       .  A
C417        C418   1.404       .  A
C417        C422   1.404       .  A
C417        H427   1.084       .  S
C418        C423   1.489       .  S
C418        C419   1.414       .  A
C419        C420   1.404       .  A
C419        N424   1.429       .  S
C420        C421   1.401       .  A
C420        H425   1.083       .  S
C421        C422   1.410       .  A
C422        N426   1.431       .  S
C423        C428   1.412       .  A
C423        C432   1.399       .  A
N424        O439   1.262       .  A
N424        O440   1.262       .  A
N426        O437   1.262       .  A
N426        O438   1.262   1_554  A
C428        C429   1.409       .  A
C428        N433   1.428       .  S
C429        C430   1.406       .  A
C429        H434   1.084       .  S
C430        C431   1.412       .  A
C431        C432   1.397       .  A
C431        N435   1.426       .  S
C432        H436   1.084       .  S
N433        O443   1.262       .  A
N433        O444   1.262       .  A
N435        O441   1.262       .  A
N435        O442   1.261       .  A
C445        C446   1.397       .  A
C445        C450   1.390       .  A
C445        H455   1.085       .  S
C446        C451   1.469       .  S
C446        C447   1.408       .  A
C447        C448   1.399       .  A
C447        N452   1.431       .  S
C448        C449   1.405       .  A
C448        H453   1.083       .  S
C449        C450   1.412       .  A
C450        N454   1.429       .  S
C451        C456   1.407       .  A
C451        C460   1.399       .  A
N452        O467   1.262       .  A
N452        O468   1.262       .  A
N454        O465   1.261       .  A
N454        O466   1.262       .  A
C456        C457   1.396       .  A
C456        N461   1.430       .  S
C457        C458   1.405       .  A
C457        H462   1.084       .  S
C458        C459   1.414       .  A
C459        C460   1.394       .  A
C459        N463   1.429       .  S
C460        H464   1.084       .  S
N461        O471   1.262       .  A
N461        O472   1.262       .  A
N463        O469   1.262       .  A
N463        O470   1.262       .  A
C473        C474   1.397       .  A
C473        C478   1.399       .  A
C473        H483   1.084       .  S
C474        C479   1.475       .  S
C474        C475   1.406       .  A
C475        C476   1.400       .  A
C475        N480   1.429       .  S
C476        C477   1.406       .  A
C476        H481   1.083       .  S
C477        C478   1.418       .  A
C478        N482   1.431       .  S
C479        C484   1.407       .  A
C479        C488   1.398       .  A
N480        O495   1.262       .  A
N480        O496   1.262       .  A
N482        O493   1.261       .  A
N482        O494   1.262       .  A
C484        C485   1.401       .  A
C484        N489   1.428       .  S
C485        C486   1.404       .  A
C485        H490   1.082       .  S
C486        C487   1.411       .  A
C487        C488   1.398       .  A
C487        N491   1.426       .  S
C488        H492   1.084       .  S
N489        O499   1.262       .  A
N489        O500   1.262       .  A
N491        O497   1.262       .  A
N491        O498   1.261       .  A
C501        C502   1.399       .  A
C501        C506   1.400       .  A
C501        H511   1.084       .  S
C502        C507   1.472       .  S
C502        C503   1.404       .  A
C503        C504   1.397       .  A
C503        N508   1.428       .  S
C504        C505   1.406       .  A
C504        H509   1.083       .  S
C505        C506   1.415       .  A
C506        N510   1.430       .  S
C507        C512   1.406       .  A
C507        C516   1.400       .  A
N508        O523   1.262       .  A
N508        O524   1.262       .  A
N510        O521   1.261       .  A
N510        O522   1.262       .  A
C512        C513   1.396       .  A
C512        N517   1.428       .  S
C513        C514   1.403       .  A
C513        H518   1.083       .  S
C514        C515   1.412       .  A
C515        C516   1.400       .  A
C515        N519   1.430       .  S
C516        H520   1.084       .  S
N517        O527   1.262       .  A
N517        O528   1.262       .  A
N519        O525   1.262       .  A
N519        O526   1.262       .  A
C529        C530   1.400       .  A
C529        C534   1.400       .  A
C529        H539   1.084       .  S
C530        C535   1.476       .  S
C530        C531   1.407       .  A
C531        C532   1.401       .  A
C531        N536   1.429       .  S
C532        C533   1.406       .  A
C532        H537   1.084       .  S
C533        C534   1.414       .  A
C534        N538   1.429       .  S
C535        C540   1.408       .  A
C535        C544   1.400       .  A
N536        O551   1.262       .  A
N536        O552   1.262       .  A
N538        O549   1.262       .  A
N538        O550   1.262       .  A
C540        C541   1.402       .  A
C540        N545   1.428       .  S
C541        C542   1.402       .  A
C541        H546   1.084       .  S
C542        C543   1.408       .  A
C543        C544   1.398       .  A
C543        N547   1.428       .  S
C544        H548   1.084       .  S
N545        O555   1.262       .  A
N545        O556   1.262       .  A
N547        O553   1.262       .  A
N547        O554   1.262       .  A
C557        C558   1.398       .  A
C557        C562   1.399       .  A
C557        H567   1.084       .  S
C558        C563   1.469       .  S
C558        C559   1.405       .  A
C559        C560   1.393       .  A
C559        N564   1.430       .  S
C560        C561   1.402       .  A
C560        H565   1.084       .  S
C561        C562   1.415       .  A
C562        N566   1.428       .  S
C563        C568   1.407       .  A
C563        C572   1.398       .  A
N564        O579   1.262       .  A
N564        O580   1.262       .  A
N566        O577   1.261       .  A
N566        O578   1.259       .  A
C568        C569   1.395       .  A
C568        N573   1.430       .  S
C569        C570   1.405       .  A
C569        H574   1.084       .  S
C570        C571   1.414       .  A
C571        C572   1.400       .  A
C571        N575   1.428       .  S
C572        H576   1.084       .  S
N573        O583   1.262       .  A
N573        O584   1.262       .  A
N575        O581   1.262       .  A
N575        O582   1.262       .  A
C585        C586   1.396       .  A
C585        C590   1.396       .  A
C585        H595   1.084       .  S
C586        C591   1.475       .  S
C586        C587   1.406       .  A
C587        C588   1.403       .  A
C587        N592   1.428       .  S
C588        C589   1.406       .  A
C588        H593   1.083       .  S
C589        C590   1.414       .  A
C590        N594   1.429       .  S
C591        C596   1.407       .  A
C591        C600   1.402       .  A
N592        O607   1.262       .  A
N592        O608   1.262       .  A
N594        O605   1.261       .  A
N594        O606   1.262       .  A
C596        C597   1.399       .  A
C596        N601   1.429       .  S
C597        C598   1.403       .  A
C597        H602   1.084       .  S
C598        C599   1.410       .  A
C599        C600   1.401       .  A
C599        N603   1.429       .  S
C600        H604   1.084       .  S
N601        O611   1.262       .  A
N601        O612   1.262       .  A
N603        O609   1.262       .  A
N603        O610   1.262       .  A
C613        C614   1.401       .  A
C613        C618   1.398       .  A
C613        H623   1.084       .  S
C614        C619   1.469       .  S
C614        C615   1.409       .  A
C615        C616   1.392       .  A
C615        N620   1.430       .  S
C616        C617   1.398       .  A
C616        H621   1.084       .  S
C617        C618   1.409       .  A
C618        N622   1.431       .  S
C619        C624   1.406       .  A
C619        C628   1.397       .  A
N620        O635   1.262       .  A
N620        O636   1.262       .  A
N622        O633   1.261       .  A
N622        O634   1.262       .  A
C624        C625   1.396       .  A
C624        N629   1.429       .  S
C625        C626   1.402       .  A
C625        H630   1.084       .  S
C626        C627   1.414       .  A
C627        C628   1.395       .  A
C627        N631   1.429       .  S
C628        H632   1.084       .  S
N629        O639   1.262       .  A
N629        O640   1.262       .  A
N631        O637   1.259       .  A
N631        O638   1.263       .  A
C641        C642   1.401       .  A
C641        C646   1.394       .  A
C641        H651   1.084       .  S
C642        C647   1.467       .  S
C642        C643   1.409       .  A
C643        C644   1.393       .  A
C643        N648   1.430       .  S
C644        C645   1.397       .  A
C644        H649   1.084       .  S
C645        C646   1.406       .  A
C646        N650   1.429       .  S
C647        C652   1.406       .  A
C647        C656   1.400       .  A
N648        O663   1.262       .  A
N648        O664   1.262       .  A
N650        O661   1.262       .  A
N650        O662   1.262       .  A
C652        C653   1.394       .  A
C652        N657   1.429       .  S
C653        C654   1.402       .  A
C653        H658   1.083       .  S
C654        C655   1.410       .  A
C655        C656   1.392       .  A
C655        N659   1.430       .  S
C656        H660   1.084       .  S
N657        O667   1.262       .  A
N657        O668   1.262       .  A
N659        O665   1.262       .  A
N659        O666   1.261       .  A
C669        C670   1.399       .  A
C669        C674   1.400       .  A
C669        H679   1.084       .  S
C670        C675   1.469       .  S
C670        C671   1.405       .  A
C671        C672   1.394       .  A
C671        N676   1.429       .  S
C672        C673   1.402       .  A
C672        H677   1.084       .  S
C673        C674   1.413       .  A
C674        N678   1.430       .  S
C675        C680   1.407       .  A
C675        C684   1.398       .  A
N676        O691   1.262       .  A
N676        O692   1.262       .  A
N678        O689   1.261       .  A
N678        O690   1.262       .  A
C680        C681   1.398       .  A
C680        N685   1.429       .  S
C681        C682   1.402       .  A
C681        H686   1.084       .  S
C682        C683   1.413       .  A
C683        C684   1.398       .  A
C683        N687   1.429       .  S
C684        H688   1.084       .  S
N685        O695   1.262       .  A
N685        O696   1.262       .  A
N687        O693   1.262       .  A
N687        O694   1.262       .  A
C697        C698   1.398       .  A
C697        C702   1.398       .  A
C697        H707   1.084       .  S
C698        C703   1.462       .  S
C698        C699   1.401       .  A
C699        C700   1.391       .  A
C699        N704   1.429       .  S
C700        C701   1.402       .  A
C700        H705   1.083       .  S
C701        C702   1.413       .  A
C702        N706   1.432       .  S
C703        C708   1.408       .  A
C703        C712   1.396       .  A
N704        O719   1.262       .  A
N704        O720   1.261       .  A
N706        O717   1.262       .  A
N706        O718   1.260       .  A
C708        C709   1.393       .  A
C708        N713   1.430       .  S
C709        C710   1.402       .  A
C709        H714   1.084       .  S
C710        C711   1.412       .  A
C711        C712   1.396       .  A
C711        N715   1.428       .  S
C712        H716   1.084       .  S
N713        O723   1.262       .  A
N713        O724   1.262       .  A
N715        O721   1.261       .  A
N715        O722   1.262       .  A
C725        C726   1.396       .  A
C725        C730   1.400       .  A
C725        H735   1.081       .  S
C726        C731   1.465       .  S
C726        C727   1.401       .  A
C727        C728   1.397       .  A
C727        N732   1.429       .  S
C728        C729   1.405       .  A
C728        H733   1.038       .  S
C729        C730   1.419       .  A
C730        N734   1.430       .  S
C731        C736   1.403       .  A
C731        C740   1.400       .  A
N732        O747   1.262       .  A
N732        O748   1.262       .  A
N734        O745   1.263       .  A
N734        O746   1.259       .  A
C736        C737   1.394       .  A
C736        N741   1.429       .  S
C737        C738   1.403       .  A
C737        H742   1.083       .  S
C738        C739   1.412       .  A
C739        C740   1.399       .  A
C739        N743   1.432       .  S
C740        H744   1.084       .  S
N741        O751   1.262       .  A
N741        O752   1.262       .  A
N743        O749   1.262       .  A
N743        O750   1.262       .  A
C753        C754   1.399       .  A
C753        C758   1.397       .  A
C753        H763   1.084       .  S
C754        C759   1.468       .  S
C754        C755   1.406       .  A
C755        C756   1.391       .  A
C755        N760   1.430       .  S
C756        C757   1.402       .  A
C756        H761   1.082       .  S
C757        C758   1.414       .  A
C758        N762   1.428       .  S
C759        C764   1.408       .  A
C759        C768   1.396       .  A
N760        O775   1.262       .  A
N760        O776   1.262       .  A
N762        O773   1.260       .  A
N762        O774   1.262       .  A
C764        C765   1.396       .  A
C764        N769   1.429       .  S
C765        C766   1.399       .  A
C765        H770   1.083       .  S
C766        C767   1.410       .  A
C767        C768   1.392       .  A
C767        N771   1.425       .  S
C768        H772   1.084       .  S
N769        O779   1.262       .  A
N769        O780   1.262       .  A
N771        O777   1.261       .  A
N771        O778   1.262       .  A
C781        C782   1.399       .  A
C781        C786   1.399       .  A
C781        H791   1.084       .  S
C782        C787   1.470       .  S
C782        C783   1.407       .  A
C783        C784   1.394       .  A
C783        N788   1.432       .  S
C784        C785   1.406       .  A
C784        H789   1.084       .  S
C785        C786   1.413       .  A
C786        N790   1.428       .  S
C787        C792   1.407       .  A
C787        C796   1.396       .  A
N788        O803   1.262       .  A
N788        O804   1.262       .  A
N790        O801   1.262       .  A
N790        O802   1.262       .  A
C792        C793   1.395       .  A
C792        N797   1.432       .  S
C793        C794   1.403       .  A
C793        H798   1.084       .  S
C794        C795   1.417       .  A
C795        C796   1.398       .  A
C795        N799   1.427       .  S
C796        H800   1.084       .  S
N797        O807   1.262       .  A
N797        O808   1.262       .  A
N799        O805   1.258       .  A
N799        O806   1.262       .  A
C809        C810   1.397       .  A
C809        C814   1.395       .  A
C809        H819   1.084       .  S
C810        C815   1.473       .  S
C810        C811   1.408       .  A
C811        C812   1.403       .  A
C811        N816   1.428       .  S
C812        C813   1.406       .  A
C812        H817   1.083       .  S
C813        C814   1.412       .  A
C814        N818   1.431       .  S
C815        C820   1.406       .  A
C815        C824   1.399       .  A
N816        O831   1.262       .  A
N816        O832   1.262       .  A
N818        O829   1.261       .  A
N818        O830   1.262       .  A
C820        C821   1.401       .  A
C820        N825   1.428       .  S
C821        C822   1.406       .  A
C821        H826   1.084       .  S
C822        C823   1.415       .  A
C823        C824   1.398       .  A
C823        N827   1.430       .  S
C824        H828   1.084       .  S
N825        O835   1.262       .  A
N825        O836   1.262       .  A
N827        O833   1.262       .  A
N827        O834   1.262       .  A
C837        C838   1.399       .  A
C837        C842   1.394       .  A
C837        H847   1.085       .  S
C838        C843   1.471       .  S
C838        C839   1.407       .  A
C839        C840   1.404       .  A
C839        N844   1.429       .  S
C840        C841   1.406       .  A
C840        H845   1.084       .  S
C841        C842   1.411       .  A
C842        N846   1.429       .  S
C843        C848   1.403       .  A
C843        C852   1.397       .  A
N844        O859   1.262       .  A
N844        O860   1.262       .  A
N846        O857   1.262       .  A
N846        O858   1.262       .  A
C848        C849   1.401       .  A
C848        N853   1.428       .  S
C849        C850   1.410       .  A
C849        H854   1.082       .  S
C850        C851   1.417       .  A
C851        C852   1.395       .  A
C851        N855   1.430       .  S
C852        H856   1.085       .  S
N853        O863   1.262       .  A
N853        O864   1.262       .  A
N855        O861   1.262       .  A
N855        O862   1.261       .  A
C865        C866   1.401       .  A
C865        C870   1.402       .  A
C865        H875   1.084       .  S
C866        C871   1.483       .  S
C866        C867   1.408       .  A
C867        C868   1.400       .  A
C867        N872   1.429       .  S
C868        C869   1.407       .  A
C868        H873   1.084       .  S
C869        C870   1.414       .  A
C870        N874   1.429       .  S
C871        C876   1.410       .  A
C871        C880   1.401       .  A
N872        O887   1.262       .  A
N872        O888   1.262       .  A
N874        O885   1.262       .  A
N874        O886   1.261       .  A
C876        C877   1.402       .  A
C876        N881   1.429       .  S
C877        C878   1.403       .  A
C877        H882   1.084       .  S
C878        C879   1.410       .  A
C879        C880   1.399       .  A
C879        N883   1.427       .  S
C880        H884   1.084       .  S
N881        O891   1.262       .  A
N881        O892   1.262       .  A
N883        O889   1.262       .  A
N883        O890   1.262       .  A
C893        C894   1.404       .  A
C893        C898   1.410       .  A
C893        H903   1.083       .  S
C894        C899   1.486       .  S
C894        C895   1.407       .  A
C895        C896   1.397       .  A
C895        N900   1.429       .  S
C896        C897   1.403       .  A
C896        H901   1.084       .  S
C897        C898   1.420       .  A
C898        N902   1.439       .  S
C899        C904   1.408       .  A
C899        C908   1.404       .  A
N900        O915   1.262       .  A
N900        O916   1.262       .  A
N902        O913   1.263       .  A
N902        O914   1.262       .  A
C904        C905   1.400       .  A
C904        N909   1.429       .  S
C905        C906   1.403       .  A
C905        H910   1.083       .  S
C906        C907   1.414       .  A
C907        C908   1.407       .  A
C907        N911   1.435       .  S
C908        H912   1.084       .  S
N909        O919   1.262       .  A
N909        O920   1.262       .  A
N911        O917   1.262       .  A
N911        O918   1.262       .  A
C921        C922   1.401       .  A
C921        C926   1.405       .  A
C921        H931   1.084       .  S
C922        C927   1.484       .  S
C922        C923   1.408       .  A
C923        C924   1.404       .  A
C923        N928   1.429       .  S
C924        C925   1.407       .  A
C924        H929   1.084       .  S
C925        C926   1.415       .  A
C926        N930   1.429       .  S
C927        C932   1.408       .  A
C927        C936   1.398       .  A
N928        O943   1.262       .  A
N928        O944   1.261       .  A
N930        O941   1.262       .  A
N930        O942   1.262       .  A
C932        C933   1.405       .  A
C932        N937   1.429       .  S
C933        C934   1.407       .  A
C933        H938   1.083       .  S
C934        C935   1.418       .  A
C935        C936   1.401       .  A
C935        N939   1.429       .  S
C936        H940   1.084       .  S
N937        O947   1.262       .  A
N937        O948   1.262       .  A
N939        O945   1.262       .  A
N939        O946   1.261       .  A
C949        C950   1.396       .  A
C949        C954   1.394       .  A
C949        H959   1.084       .  S
C950        C955   1.468       .  S
C950        C951   1.405       .  A
C951        C952   1.400       .  A
C951        N956   1.428       .  S
C952        C953   1.405       .  A
C952        H957   1.084       .  S
C953        C954   1.412       .  A
C954        N958   1.428       .  S
C955        C960   1.403       .  A
C955        C964   1.400       .  A
N956        O971   1.262       .  A
N956        O972   1.262       .  A
N958        O969   1.262       .  A
N958        O970   1.262       .  A
C960        C961   1.398       .  A
C960        N965   1.428       .  S
C961        C962   1.407       .  A
C961        H966   1.084       .  S
C962        C963   1.413       .  A
C963        C964   1.397       .  A
C963        N967   1.429       .  S
C964        H968   1.084       .  S
N965        O975   1.262       .  A
N965        O976   1.261       .  A
N967        O973   1.262       .  A
N967        O974   1.262       .  A
C977        C978   1.401       .  A
C977        C982   1.407       .  A
C977        H987   1.084       .  S
C978        C983   1.478       .  S
C978        C979   1.405       .  A
C979        C980   1.395       .  A
C979        N984   1.429       .  S
C980        C981   1.404       .  A
C980        H985   1.084       .  S
C981        C982   1.419       .  A
C982        N986   1.432       .  S
C983        C988   1.407       .  A
C983        C992   1.400       .  A
N984        O999   1.262       .  A
N984       O1000   1.262       .  A
N986        O997   1.261       .  A
N986        O998   1.262       .  A
C988        C989   1.400       .  A
C988        N993   1.430       .  S
C989        C990   1.406       .  A
C989        H994   1.084       .  S
C990        C991   1.414       .  A
C991        C992   1.403       .  A
C991        N995   1.428       .  S
C992        H996   1.084       .  S
N993       O1003   1.262       .  A
N993       O1004   1.262       .  A
N995       O1001   1.262       .  A
N995       O1002   1.262       .  A
C1005      C1006   1.403       .  A
C1005      C1010   1.392       .  A
C1005      H1015   1.082       .  S
C1006      C1011   1.494       .  S
C1006      C1007   1.420       .  A
C1007      C1008   1.404       .  A
C1007      N1012   1.432       .  S
C1008      C1009   1.399       .  A
C1008      H1013   1.084       .  S
C1009      C1010   1.409       .  A
C1010      N1014   1.430       .  S
C1011      C1016   1.416       .  A
C1011      C1020   1.405       .  A
N1012      O1027   1.262       .  A
N1012      O1028   1.262       .  A
N1014      O1025   1.262       .  A
N1014      O1026   1.260       .  A
C1016      C1017   1.395       .  A
C1016      N1021   1.433       .  S
C1017      C1018   1.401       .  A
C1017      H1022   1.084       .  S
C1018      C1019   1.418       .  A
C1019      C1020   1.402       .  A
C1019      N1023   1.433       .  S
C1020      H1024   1.082       .  S
N1021      O1031   1.263       .  A
N1021      O1032   1.262       .  A
N1023      O1029   1.261       .  A
N1023      O1030   1.262       .  A
C1033      C1034   1.404       .  A
C1033      C1038   1.388       .  A
C1033      H1043   1.084       .  S
C1034      C1039   1.482       .  S
C1034      C1035   1.415       .  A
C1035      C1036   1.402       .  A
C1035      N1040   1.434       .  S
C1036      C1037   1.402       .  A
C1036      H1041   1.082       .  S
C1037      C1038   1.406       .  A
C1038      N1042   1.432       .  S
C1039      C1044   1.410       .  A
C1039      C1048   1.400       .  A
N1040      O1055   1.262       .  A
N1040      O1056   1.263       .  A
N1042      O1053   1.262       .  A
N1042      O1054   1.261       .  A
C1044      C1045   1.398       .  A
C1044      N1049   1.433       .  S
C1045      C1046   1.410       .  A
C1045      H1050   1.080       .  S
C1046      C1047   1.421       .  A
C1047      C1048   1.390       .  A
C1047      N1051   1.429       .  S
C1048      H1052   1.085       .  S
N1049      O1059   1.262       .  A
N1049      O1060   1.263       .  A
N1051      O1057   1.260       .  A
N1051      O1058   1.263       .  A
C1061      C1062   1.407       .  A
C1061      C1066   1.402       .  A
C1061      H1071   1.081       .  S
C1062      C1067   1.499       .  S
C1062      C1063   1.419       .  A
C1063      C1064   1.399       .  A
C1063      N1068   1.432       .  S
C1064      C1065   1.396       .  A
C1064      H1069   1.084       .  S
C1065      C1066   1.409       .  A
C1066      N1070   1.431       .  S
C1067      C1072   1.417       .  A
C1067      C1076   1.405       .  A
N1068      O1083   1.262       .  A
N1068      O1084   1.262       .  A
N1070      O1081   1.262       .  A
N1070      O1082   1.261       .  A
C1072      C1073   1.402       .  A
C1072      N1077   1.429       .  S
C1073      C1074   1.404       .  A
C1073      H1078   1.083       .  S
C1074      C1075   1.413       .  A
C1075      C1076   1.398       .  A
C1075      N1079   1.429       .  S
C1076      H1080   1.083       .  S
N1077      O1087   1.262       .  A
N1077      O1088   1.262       .  A
N1079      O1085   1.262       .  A
N1079      O1086   1.261       .  A
C1089      C1090   1.397       .  A
C1089      C1094   1.393       .  A
C1089      H1099   1.084       .  S
C1090      C1095   1.478       .  S
C1090      C1091   1.409       .  A
C1091      C1092   1.403       .  A
C1091      N1096   1.428       .  S
C1092      C1093   1.405       .  A
C1092      H1097   1.084       .  S
C1093      C1094   1.411       .  A
C1094      N1098   1.427       .  S
C1095      C1100   1.408       .  A
C1095      C1104   1.400       .  A
N1096      O1111   1.262       .  A
N1096      O1112   1.262       .  A
N1098      O1109   1.261       .  A
N1098      O1110   1.262       .  A
C1100      C1101   1.396       .  A
C1100      N1105   1.430       .  S
C1101      C1102   1.406       .  A
C1101      H1106   1.084       .  S
C1102      C1103   1.416       .  A
C1103      C1104   1.402       .  A
C1103      N1107   1.428       .  S
C1104      H1108   1.084       .  S
N1105      O1115   1.262       .  A
N1105      O1116   1.262       .  A
N1107      O1113   1.262       .  A
N1107      O1114   1.262       .  A
C1117      C1118   1.397       .  A
C1117      C1122   1.396       .  A
C1117      H1127   1.084       .  S
C1118      C1123   1.475       .  S
C1118      C1119   1.408       .  A
C1119      C1120   1.403       .  A
C1119      N1124   1.428       .  S
C1120      C1121   1.405       .  A
C1120      H1125   1.083       .  S
C1121      C1122   1.411       .  A
C1122      N1126   1.427       .  S
C1123      C1128   1.407       .  A
C1123      C1132   1.403       .  A
N1124      O1139   1.262       .  A
N1124      O1140   1.262       .  A
N1126      O1137   1.262       .  A
N1126      O1138   1.261       .  A
C1128      C1129   1.397       .  A
C1128      N1133   1.429       .  S
C1129      C1130   1.402       .  A
C1129      H1134   1.083       .  S
C1130      C1131   1.411       .  A
C1131      C1132   1.404       .  A
C1131      N1135   1.431       .  S
C1132      H1136   1.084       .  S
N1133      O1143   1.262       .  A
N1133      O1144   1.262       .  A
N1135      O1141   1.262       .  A
N1135      O1142   1.262       .  A
C1145      C1146   1.400       .  A
C1145      C1150   1.395       .  A
C1145      H1155   1.083       .  S
C1146      C1151   1.481       .  S
C1146      C1147   1.410       .  A
C1147      C1148   1.397       .  A
C1147      N1152   1.431       .  S
C1148      C1149   1.402       .  A
C1148      H1153   1.084       .  S
C1149      C1150   1.414       .  A
C1150      N1154   1.426       .  S
C1151      C1156   1.411       .  A
C1151      C1160   1.402       .  A
N1152      O1167   1.262       .  A
N1152      O1168   1.262       .  A
N1154      O1165   1.262       .  A
N1154      O1166   1.259       .  A
C1156      C1157   1.398       .  A
C1156      N1161   1.430       .  S
C1157      C1158   1.404       .  A
C1157      H1162   1.084       .  S
C1158      C1159   1.415       .  A
C1159      C1160   1.395       .  A
C1159      N1163   1.430       .  S
C1160      H1164   1.084       .  S
N1161      O1171   1.262       .  A
N1161      O1172   1.262       .  A
N1163      O1169   1.262       .  A
N1163      O1170   1.262       .  A
