geometry optimzed in LAMMPS
_audit_creation_date              2020-11-30 
_audit_creation_method            'lammps2cif' 
_symmetry_space_group_name_H-M    'P1' 
_symmetry_Int_Tables_number       1 
_symmetry_cell_setting            triclinic 
loop_ 
_symmetry_equiv_pos_as_xyz 
  x,y,z 
_cell_length_a                    43.07090367363045 
_cell_length_b                    43.016044280083655 
_cell_length_c                    43.13556747846167 
_cell_angle_alpha                 90.09445594365886 
_cell_angle_beta                  89.5763446579272 
_cell_angle_gamma                 90.09534614300925 
loop_ 
_atom_site_label 
_atom_site_type_symbol 
_atom_site_fract_x 
_atom_site_fract_y 
_atom_site_fract_z 
_atom_site_charge 
C1          C  0.51738784  0.25338499  0.24689890    -0.00300
C2          C  0.48586938  0.25204346  0.24823955    -0.00300
C3          C  0.51597934  0.75055469  0.25422268    -0.00300
C4          C  0.48465921  0.74817268  0.25180421    -0.00300
C5          C  0.51706766  0.24933023  0.75065402    -0.00300
C6          C  0.48549966  0.24809703  0.75043675    -0.00300
C7          C  0.24667505  0.24970195  0.51750994    -0.00300
C8          C  0.24678153  0.25050057  0.48603028    -0.00300
C9          C  0.24942466  0.98495530  0.75562505    -0.00300
C10         C  0.25079847  0.01635282  0.75440727    -0.00300
O11         O  0.29431534  0.16834369  0.86911157    -0.82660
C12         C  0.33189485  0.23654847  0.76221748     0.96690
O13         O  0.33786585  0.24309820  0.78991502    -0.71780
O14         O  0.28855295  0.24575270  0.82376353    -0.75370
Al15       Al  0.32607388  0.22410403  0.82788559     1.48980
C16         C  0.26173170  0.23738226  0.83187027     0.91950
O17         O  0.25333035  0.17416216  0.79202595    -0.81590
O18         O  0.33252423  0.13259675  0.79624996    -0.75150
Al19       Al  0.27614016  0.17197611  0.82897891     1.90120
O20         O  0.28945195  0.16038930  0.75869041    -0.74220
O21         O  0.36881629  0.18255694  0.78850101    -0.74070
O22         O  0.32389537  0.20950826  0.75444991    -0.79730
O23         O  0.36646189  0.20692012  0.83309691    -0.77930
O24         O  0.31005087  0.18931909  0.81167603    -1.14070
O25         O  0.31662000  0.21402073  0.86946335    -0.73260
C26         C  0.30437483  0.19161675  0.88385961     0.97460
C27         C  0.26156436  0.16655089  0.76507492     0.93850
Al28       Al  0.32733629  0.17248934  0.77773787     1.55560
O29         O  0.25600588  0.20981660  0.83970940    -0.77880
C30         C  0.38214089  0.19640248  0.81055579     0.98020
C31         C  0.31039438  0.11695649  0.80771980     0.92900
O32         O  0.28768578  0.13039905  0.82047287    -0.83200
O33         O  0.17098995  0.36812733  0.79358692    -0.82660
C34         C  0.23691490  0.26010451  0.83148589     0.96690
O35         O  0.24345511  0.28781580  0.83781869    -0.71780
O36         O  0.24771398  0.32305438  0.78990614    -0.75370
Al37       Al  0.22478420  0.32593585  0.82731088     1.48980
C38         C  0.23984452  0.33016745  0.76281595     0.91950
O39         O  0.17614499  0.28933748  0.75348140    -0.81590
O40         O  0.13350279  0.29495245  0.83215039    -0.75150
Al41       Al  0.17409989  0.32704261  0.77616933     1.90120
O42         O  0.16122454  0.25663631  0.78944346    -0.74220
O43         O  0.18237479  0.28586242  0.86876898    -0.74070
O44         O  0.20993197  0.25218939  0.82368172    -0.79730
O45         O  0.20690940  0.33026478  0.86778660    -0.77930
O46         O  0.19048022  0.30981021  0.81037772    -1.14070
O47         O  0.21436516  0.36734593  0.81945159    -0.73260
C48         C  0.19311496  0.38244490  0.80649718     0.97460
C49         C  0.16818077  0.26243535  0.76173419     0.93850
Al50       Al  0.17305466  0.27579208  0.82716870     1.55560
O51         O  0.21224738  0.33684887  0.75650860    -0.77880
C52         C  0.19606481  0.30752526  0.88284942     0.98020
C53         C  0.11832506  0.30635360  0.80991654     0.92900
O54         O  0.13213812  0.31926792  0.78749169    -0.83200
O55         O  0.33208432  0.36641536  0.70565075    -0.82660
C56         C  0.26418035  0.25830059  0.66979020     0.96690
O57         O  0.25810782  0.28585903  0.66256262    -0.71780
O58         O  0.25465247  0.32075653  0.71122223    -0.75370
Al59       Al  0.27721944  0.32389534  0.67365843     1.48980
C60         C  0.26276723  0.32936523  0.73788154     0.91950
O61         O  0.32585894  0.28843595  0.74692552    -0.81590
O62         O  0.36813956  0.29146399  0.66817123    -0.75150
Al63       Al  0.32851093  0.32555331  0.72381658     1.90120
O64         O  0.33957221  0.25448865  0.71148640    -0.74220
O65         O  0.31877629  0.28339975  0.63163001    -0.74070
O66         O  0.29105895  0.25038663  0.67761532    -0.79730
O67         O  0.29546446  0.32857768  0.63360536    -0.77930
O68         O  0.31153182  0.30779322  0.69016082    -1.14070
O69         O  0.28737898  0.36520803  0.68225172    -0.73260
C70         C  0.30871682  0.38051417  0.69492300     0.97460
C71         C  0.33287397  0.26115469  0.73910039     0.93850
Al72       Al  0.32817199  0.27330475  0.67350373     1.55560
O73         O  0.29048615  0.33639070  0.74364710    -0.77880
C74         C  0.30598214  0.30592202  0.61810233     0.98020
C75         C  0.38372647  0.30242766  0.69036111     0.92900
O76         O  0.37035189  0.31667521  0.71231689    -0.83200
O77         O  0.16839497  0.13140922  0.70960044    -0.82660
C78         C  0.23926333  0.23556699  0.67034598     0.96690
O79         O  0.24536086  0.20757534  0.66461933    -0.71780
O80         O  0.24726882  0.17354537  0.71337759    -0.75370
Al81       Al  0.22521980  0.17004086  0.67612711     1.48980
C82         C  0.23872786  0.16657798  0.74037478     0.91950
O83         O  0.17631474  0.21022138  0.74816445    -0.81590
O84         O  0.13491323  0.20354040  0.66914287    -0.75150
Al85       Al  0.17312826  0.17219570  0.72647719     1.90120
O86         O  0.16265633  0.24233565  0.71136733    -0.74220
O87         O  0.18507140  0.20987972  0.63295897    -0.74070
O88         O  0.21225799  0.24414393  0.67753732    -0.79730
O89         O  0.20829939  0.16477890  0.63566306    -0.77930
O90         O  0.19093246  0.18776277  0.69208519    -1.14070
O91         O  0.21345002  0.12883162  0.68573006    -0.73260
C92         C  0.19072286  0.11562444  0.69874541     0.97460
C93         C  0.16868426  0.23698298  0.73932917     0.93850
Al94       Al  0.17493568  0.22166055  0.67414591     1.55560
O95         O  0.21069030  0.16102485  0.74665160    -0.77880
C96         C  0.19829795  0.18724271  0.61982881     0.98020
C97         C  0.11876370  0.19377172  0.69170186     0.92900
O98         O  0.13159700  0.18146411  0.71483205    -0.83200
C99         C  0.01831764  0.25182257  0.74931531    -0.00300
C100        C  0.98683212  0.25115020  0.75040726    -0.00300
C101        C  0.25128390  0.48380566  0.75197807    -0.00300
C102        C  0.25404275  0.51521274  0.75375563    -0.00300
C103        C  0.75601531  0.51480080  0.25404539    -0.00300
C104        C  0.75701589  0.48324017  0.25394556    -0.00300
C105        C  0.75163865  0.24634128  0.98630578    -0.00300
C106        C  0.75269318  0.24601215  0.01772665    -0.00300
O107        O  0.78874480  0.31593978  0.13241402    -0.82660
C108        C  0.83416465  0.26163510  0.23920085     0.96690
O109        O  0.82472294  0.25301946  0.21299935    -0.71780
O110        O  0.78941635  0.25631229  0.16406485    -0.75370
Al111      Al  0.82825269  0.27509116  0.17523426     1.48980
C112        C  0.76175756  0.26342531  0.17083082     0.91950
O113        O  0.75887062  0.33955804  0.21204545    -0.81590
O114        O  0.81896091  0.36865356  0.21375844    -0.75150
Al115      Al  0.77810828  0.32687122  0.17409071     1.90120
O116        O  0.79120757  0.32343268  0.24763201    -0.74220
O117        O  0.86834988  0.33196214  0.20585560    -0.74070
O118        O  0.84078255  0.28961549  0.24446223    -0.79730
O119        O  0.87032025  0.28575557  0.18422707    -0.77930
O120        O  0.81184979  0.30984839  0.19117122    -1.14070
O121        O  0.83360112  0.29228765  0.13492663    -0.73260
C122        C  0.81104284  0.30202716  0.11920281     0.97460
C123        C  0.76443277  0.33168396  0.23955488     0.93850
Al124      Al  0.82855093  0.32717577  0.22479358     1.55560
O125        O  0.75466656  0.29053042  0.17887145    -0.77880
C126        C  0.88385602  0.30889197  0.19618907     0.98020
C127        C  0.80688840  0.38226246  0.19095266     0.92900
O128        O  0.79703635  0.36667776  0.16818501    -0.83200
O129        O  0.87264890  0.21354794  0.31926883    -0.82660
C130        C  0.76832708  0.16981326  0.26109351     0.96690
O131        O  0.79519079  0.17887909  0.25415550    -0.71780
O132        O  0.84447291  0.21181713  0.25899700    -0.75370
Al133      Al  0.83115278  0.17383131  0.27780589     1.48980
C134        C  0.83591180  0.23929330  0.26446160     0.91950
O135        O  0.79307523  0.24466716  0.34002718    -0.81590
O136        O  0.78895641  0.18475806  0.36957964    -0.75150
Al137      Al  0.83096159  0.22497398  0.32844820     1.90120
O138        O  0.75718365  0.21254120  0.32334148    -0.74220
O139        O  0.79753070  0.13520467  0.33345849    -0.74070
O140        O  0.76126992  0.16266320  0.28866635    -0.79730
O141        O  0.81992402  0.13195886  0.28788137    -0.77930
O142        O  0.81390650  0.19113496  0.31147915    -1.14070
O143        O  0.86989443  0.16753558  0.29753158    -0.73260
C144        C  0.88577451  0.19009074  0.30744519     0.97460
C145        C  0.76544755  0.23910294  0.33252477     0.93850
Al146      Al  0.77931033  0.17496665  0.32757976     1.55560
O147        O  0.82770587  0.24758226  0.29125272    -0.77880
C148        C  0.80725522  0.11897673  0.31097719     0.98020
C149        C  0.81188567  0.19645903  0.38351148     0.92900
O150        O  0.83506753  0.20647939  0.36835347    -0.83200
O151        O  0.68376980  0.36682705  0.28676593    -0.82660
C152        C  0.74276647  0.26404315  0.33362913     0.96690
O153        O  0.75022173  0.29088180  0.32462917    -0.71780
O154        O  0.74484521  0.33922786  0.28966949    -0.75370
Al155      Al  0.72633657  0.32761566  0.32805961     1.48980
C156        C  0.73928863  0.33102122  0.26228314     0.91950
O157        O  0.66473491  0.28453709  0.26025929    -0.81590
O158        O  0.63512341  0.28387827  0.32063052    -0.75150
Al159      Al  0.67539612  0.32411705  0.27763907     1.90120
O160        O  0.68190631  0.25102957  0.29429527    -0.74220
O161        O  0.67137170  0.29531270  0.36945581    -0.74070
O162        O  0.71558748  0.25795772  0.34255508    -0.79730
O163        O  0.71654326  0.31875363  0.37028801    -0.77930
O164        O  0.69272430  0.30922976  0.31217000    -1.14070
O165        O  0.70638216  0.36701645  0.33217544    -0.73260
C166        C  0.69593787  0.38156745  0.30897537     0.97460
C167        C  0.67280645  0.25731934  0.26742504     0.93850
Al168      Al  0.67709567  0.27527802  0.33036420     1.55560
O169        O  0.71290984  0.32105079  0.25464609    -0.77880
C170        C  0.69409534  0.30615715  0.38443893     0.98020
C171        C  0.62042235  0.30528925  0.30729089     0.92900
O172        O  0.63497796  0.32828751  0.29600437    -0.83200
O173        O  0.67391734  0.13068515  0.20638309    -0.82660
C174        C  0.73766044  0.23963722  0.17068553     0.96690
O175        O  0.74413033  0.21268078  0.16132974    -0.71780
O176        O  0.75126672  0.17887488  0.21030566    -0.75370
Al177      Al  0.72757563  0.17354434  0.17402960     1.48980
C178        C  0.74484247  0.16862214  0.23691589     0.91950
O179        O  0.68301638  0.20642239  0.25035304    -0.81590
O180        O  0.63532754  0.20170885  0.17357122    -0.75150
Al181      Al  0.67879185  0.16982689  0.22656768     1.90120
O182        O  0.66322078  0.23917997  0.21695094    -0.74220
O183        O  0.68344534  0.21248659  0.13500163    -0.74070
O184        O  0.71101249  0.24606771  0.18094836    -0.79730
O185        O  0.70764065  0.16768444  0.13526345    -0.77930
O186        O  0.69341518  0.18823002  0.19247700    -1.14070
O187        O  0.71954425  0.13107461  0.18371711    -0.73260
C188        C  0.69727378  0.11619143  0.19583340     0.97460
C189        C  0.67271612  0.23297244  0.24383782     0.93850
Al190      Al  0.67464422  0.22185637  0.17757096     1.55560
O191        O  0.71818220  0.15814577  0.24316136    -0.77880
C192        C  0.69633769  0.19030963  0.12050033     0.98020
C193        C  0.62110466  0.19115868  0.19708659     0.92900
O194        O  0.63627042  0.17880315  0.21869928    -0.83200
C195        C  0.74161403  0.01629530  0.26468427    -0.00300
C196        C  0.74312781  0.98470013  0.26466843    -0.00300
C197        C  0.75352408  0.25078809  0.48525209    -0.00300
C198        C  0.75392562  0.25206306  0.51670967    -0.00300
C199        C  0.74550269  0.75159966  0.98522310    -0.00300
C200        C  0.74385023  0.75025216  0.01655978    -0.00300
O201        O  0.78366088  0.63253397  0.17930319    -0.82660
C202        C  0.83068828  0.73312140  0.24108344     0.96690
O203        O  0.82182985  0.70590806  0.24700813    -0.71780
O204        O  0.78759440  0.65772037  0.23943016    -0.75370
Al205      Al  0.82585761  0.67059798  0.22132608     1.48980
C206        C  0.76045338  0.66742255  0.23497364     0.91950
O207        O  0.75730537  0.71502090  0.16083867    -0.81590
O208        O  0.81688935  0.71700718  0.13189209    -0.75150
Al209      Al  0.77483556  0.67541640  0.17149901     1.90120
O210        O  0.79050657  0.74844929  0.17995246    -0.74220
O211        O  0.86590095  0.70549535  0.16744024    -0.74070
O212        O  0.83920636  0.74069996  0.21403834    -0.79730
O213        O  0.86820557  0.68081224  0.21166150    -0.77930
O214        O  0.80933391  0.69014432  0.18887408    -1.14070
O215        O  0.83027112  0.63233201  0.19931269    -0.73260
C216        C  0.80642250  0.61774453  0.19021893     0.97460
C217        C  0.76410085  0.74225741  0.16932427     0.93850
Al218      Al  0.82687913  0.72476634  0.17437636     1.55560
O219        O  0.75239598  0.67846588  0.20919754    -0.77880
C220        C  0.88159052  0.69481821  0.18956418     0.98020
C221        C  0.80405682  0.69502369  0.11725242     0.92900
O222        O  0.79367225  0.67154739  0.13165175    -0.83200
O223        O  0.83001941  0.79374466  0.36786356    -0.82660
C224        C  0.76306967  0.82944583  0.26239128     0.96690
O225        O  0.75811871  0.83947756  0.28930824    -0.71780
O226        O  0.75153885  0.79129480  0.32307761    -0.75370
Al227      Al  0.77601376  0.82736412  0.32725760     1.48980
C228        C  0.75809951  0.76411880  0.33134792     0.91950
O229        O  0.81966397  0.75011323  0.29205981    -0.81590
O230        O  0.86682771  0.82775661  0.29502626    -0.75150
Al231      Al  0.82423922  0.77414593  0.32864844     1.90120
O232        O  0.83830644  0.78402199  0.25899827    -0.74220
O233        O  0.81856251  0.86543035  0.28556212    -0.74070
O234        O  0.78934563  0.81926399  0.25427080    -0.79730
O235        O  0.79668804  0.86664516  0.33143886    -0.77930
O236        O  0.80934690  0.80843295  0.31104273    -1.14070
O237        O  0.78536051  0.81786845  0.36925537    -0.73260
C238        C  0.80773203  0.80531575  0.38318720     0.97460
C239        C  0.82986378  0.75675720  0.26545467     0.93850
Al240      Al  0.82691474  0.82314324  0.27655212     1.55560
O241        O  0.78489160  0.75740553  0.34082902    -0.77880
C242        C  0.80711101  0.88076884  0.30773900     0.98020
C243        C  0.88134940  0.80467422  0.30574748     0.92900
O244        O  0.86655946  0.78283333  0.31881843    -0.83200
O245        O  0.63389835  0.82986301  0.20951872    -0.82660
C246        C  0.74060924  0.76669782  0.16816474     0.96690
O247        O  0.71349466  0.76024950  0.15931714    -0.71780
O248        O  0.67867155  0.75144262  0.20762297    -0.75370
Al249      Al  0.67445170  0.77721831  0.17235661     1.48980
C250        C  0.66911197  0.75698405  0.23467353     0.91950
O251        O  0.71161002  0.81850695  0.24846659    -0.81590
O252        O  0.70382611  0.87034704  0.17427297    -0.75150
Al253      Al  0.67370556  0.82371584  0.22702918     1.90120
O254        O  0.74249127  0.84004126  0.21389681    -0.74220
O255        O  0.71322021  0.82311879  0.13378943    -0.74070
O256        O  0.74750369  0.79360780  0.17724097    -0.79730
O257        O  0.66897068  0.79816667  0.13385977    -0.77930
O258        O  0.69028954  0.81060984  0.19146274    -1.14070
O259        O  0.63208635  0.78638227  0.18297149    -0.73260
C260        C  0.61841636  0.80789677  0.19776602     0.97460
C261        C  0.73771995  0.82937722  0.24056332     0.93850
Al262      Al  0.72359111  0.83020195  0.17574431     1.55560
O263        O  0.66181046  0.78410054  0.24276034    -0.77880
C264        C  0.69146522  0.81014647  0.11919235     0.98020
C265        C  0.69359040  0.88282679  0.19895274     0.92900
O266        O  0.68239262  0.86601362  0.22019170    -0.83200
O267        O  0.71562349  0.63042955  0.31600383    -0.82660
C268        C  0.66791046  0.73221587  0.25775403     0.96690
O269        O  0.67692364  0.70534571  0.25066019    -0.71780
O270        O  0.71135992  0.65715413  0.25587635    -0.75370
Al271      Al  0.67328256  0.66901673  0.27488102     1.48980
C272        C  0.73846004  0.66688685  0.26053329     0.91950
O273        O  0.74205534  0.71220342  0.33578438    -0.81590
O274        O  0.68269954  0.71262487  0.36550253    -0.75150
Al275      Al  0.72475820  0.67287342  0.32453203     1.90120
O276        O  0.70819113  0.74598048  0.31873989    -0.74220
O277        O  0.63336585  0.70135055  0.33046982    -0.74070
O278        O  0.65906235  0.73852865  0.28500179    -0.79730
O279        O  0.63106287  0.67833933  0.28532670    -0.77930
O280        O  0.68988990  0.68760770  0.30800303    -1.14070
O281        O  0.66930106  0.62971066  0.29519387    -0.73260
C282        C  0.69302678  0.61544335  0.30484803     0.97460
C283        C  0.73478161  0.73965926  0.32881304     0.93850
Al284      Al  0.67208722  0.72150341  0.32378393     1.55560
O285        O  0.74661378  0.67697387  0.28666640    -0.77880
C286        C  0.61761269  0.69121852  0.30807593     0.98020
C287        C  0.69661437  0.69114595  0.37973496     0.92900
O288        O  0.70714977  0.66801926  0.36492372    -0.83200
C289        C  0.75501907  0.74497559  0.48408279    -0.00300
C290        C  0.75498092  0.74374484  0.51561258    -0.00300
C291        C  0.74235181  0.01551712  0.74260565    -0.00300
C292        C  0.74473510  0.98411622  0.74453147    -0.00300
O293        O  0.63628172  0.18082059  0.78600460    -0.82660
C294        C  0.73646142  0.24053521  0.83339265     0.96690
O295        O  0.70952424  0.24732248  0.82478158    -0.71780
O296        O  0.66227170  0.24174266  0.78991723    -0.75370
Al297      Al  0.67319444  0.22328438  0.82816829     1.48980
C298        C  0.67207221  0.23665878  0.76288956     0.91950
O299        O  0.71776498  0.16122877  0.76050513    -0.81590
O300        O  0.71770410  0.13251027  0.82059839    -0.75150
Al301      Al  0.67839494  0.17251545  0.77753176     1.90120
O302        O  0.75093118  0.17940898  0.79421727    -0.74220
O303        O  0.70612373  0.16885339  0.86938690    -0.74070
O304        O  0.74292187  0.21368050  0.84287158    -0.79730
O305        O  0.68155120  0.21337543  0.87037102    -0.77930
O306        O  0.69234501  0.18987069  0.81227467    -1.14070
O307        O  0.63340778  0.20326071  0.83148551    -0.73260
C308        C  0.62020758  0.19283743  0.80744242     0.97460
C309        C  0.74485981  0.16949064  0.76748259     0.93850
Al310      Al  0.72626708  0.17469178  0.83041393     1.55560
O311        O  0.68241614  0.21032775  0.75505391    -0.77880
C312        C  0.69452504  0.19125995  0.88446397     0.98020
C313        C  0.69605686  0.11781343  0.80750694     0.92900
O314        O  0.67344429  0.13244149  0.79595778    -0.83200
O315        O  0.79765906  0.36484757  0.83408283    -0.82660
C316        C  0.83518809  0.26101002  0.76435175     0.96690
O317        O  0.84445748  0.28838787  0.75973671    -0.71780
O318        O  0.79605703  0.32220411  0.75384964    -0.75370
Al319      Al  0.83162621  0.32636658  0.77861333     1.48980
C320        C  0.76899399  0.33093828  0.76040774     0.91950
O321        O  0.75460232  0.29019901  0.82070310    -0.81590
O322        O  0.83108971  0.29239760  0.86907372    -0.75150
Al323      Al  0.77817049  0.32637480  0.82651558     1.90120
O324        O  0.78814697  0.25675183  0.83905817    -0.74220
O325        O  0.87004478  0.28437911  0.82043524    -0.74070
O326        O  0.82478909  0.25263053  0.79045181    -0.79730
O327        O  0.87023532  0.33083705  0.79951517    -0.77930
O328        O  0.81266094  0.30922195  0.81142637    -1.14070
O329        O  0.82115194  0.36861287  0.78913721    -0.73260
C330        C  0.80747857  0.38122746  0.81197975     0.97460
C331        C  0.76088174  0.26376838  0.83125167     0.93850
Al332      Al  0.82755799  0.27459799  0.82844565     1.55560
O333        O  0.76193859  0.33964078  0.78749364    -0.77880
C334        C  0.88475468  0.30713262  0.80894798     0.98020
C335        C  0.80761342  0.30321822  0.88324803     0.92900
O336        O  0.78602738  0.31584637  0.86819923    -0.83200
O337        O  0.83271542  0.20630045  0.63452844    -0.82660
C338        C  0.76909157  0.16872233  0.74365676     0.96690
O339        O  0.76250075  0.15961466  0.71662054    -0.71780
O340        O  0.75538866  0.20822417  0.68191158    -0.75370
Al341      Al  0.77943784  0.17197782  0.67716823     1.48980
C342        C  0.76190581  0.23490951  0.67189268     0.91950
O343        O  0.82526726  0.24694872  0.71262559    -0.81590
O344        O  0.87060522  0.16853721  0.70445465    -0.75150
Al345      Al  0.82859845  0.22442041  0.67488804     1.90120
O346        O  0.84480112  0.21171174  0.74352228    -0.74220
O347        O  0.82158448  0.13117498  0.71630489    -0.74070
O348        O  0.79592791  0.17812136  0.75007015    -0.79730
O349        O  0.79943147  0.13305667  0.67102333    -0.77930
O350        O  0.81346702  0.18988035  0.69222847    -1.14070
O351        O  0.78801925  0.18195304  0.63482800    -0.73260
C352        C  0.80960703  0.19548245  0.62006070     0.97460
C353        C  0.83545530  0.23893859  0.73874264     0.93850
Al354      Al  0.83190488  0.17351742  0.72545072     1.55560
O355        O  0.78932001  0.24204425  0.66424763    -0.77880
C356        C  0.80887566  0.11745151  0.69385132     0.98020
C357        C  0.88547766  0.19203111  0.69474489     0.92900
O358        O  0.87115857  0.21476150  0.68295593    -0.83200
O359        O  0.63640631  0.31815958  0.71782854    -0.82660
C360        C  0.73763292  0.25842627  0.67034540     0.96690
O361        O  0.71054880  0.25168115  0.67904533    -0.71780
O362        O  0.66252715  0.25721488  0.71374290    -0.75370
Al363      Al  0.67437691  0.27592244  0.67564284     1.48980
C364        C  0.67213538  0.26210896  0.74073965     0.91950
O365        O  0.71774240  0.33745465  0.74391057    -0.81590
O366        O  0.71880073  0.36694125  0.68395495    -0.75150
Al367      Al  0.67864296  0.32638879  0.72668340     1.90120
O368        O  0.75154791  0.31996889  0.70999987    -0.74220
O369        O  0.70800832  0.33055188  0.63492085    -0.74070
O370        O  0.74440255  0.28549467  0.66137732    -0.79730
O371        O  0.68372873  0.28586880  0.63352275    -0.77930
O372        O  0.69326349  0.30930392  0.69184445    -1.14070
O373        O  0.63488297  0.29617591  0.67207401    -0.73260
C374        C  0.62093354  0.30648828  0.69591033     0.97460
C375        C  0.74503513  0.32975629  0.73674789     0.93850
Al376      Al  0.72749006  0.32463962  0.67387841     1.55560
O377        O  0.68222878  0.28844593  0.74873217    -0.77880
C378        C  0.69725609  0.30796022  0.61964878     0.98020
C379        C  0.69730651  0.38153851  0.69778798     0.92900
O380        O  0.67432823  0.36681947  0.70891661    -0.83200
C381        C  0.74981700  0.48425091  0.75927927    -0.00300
C382        C  0.74837112  0.51573493  0.76056139    -0.00300
O383        O  0.78708602  0.68507137  0.87030719    -0.82660
C384        C  0.83223009  0.73975833  0.76390238     0.96690
O385        O  0.82320180  0.74838368  0.79038249    -0.71780
O386        O  0.78892918  0.74568364  0.83953902    -0.75370
Al387      Al  0.82711203  0.72707492  0.82840563     1.48980
C388        C  0.76139876  0.73905543  0.83302188     0.91950
O389        O  0.75941773  0.66243048  0.79003826    -0.81590
O390        O  0.82077918  0.63323802  0.79016693    -0.75150
Al391      Al  0.77724716  0.67487736  0.82863462     1.90120
O392        O  0.79385132  0.67760296  0.75552717    -0.74220
O393        O  0.86961289  0.67132902  0.79868700    -0.74070
O394        O  0.84155974  0.71250370  0.75917084    -0.79730
O395        O  0.86907723  0.71759396  0.81977249    -0.77930
O396        O  0.81163011  0.69201037  0.81237151    -1.14070
O397        O  0.83157741  0.70999854  0.86898709    -0.73260
C398        C  0.80870872  0.69920819  0.88413268     0.97460
C399        C  0.76677885  0.66921165  0.76252788     0.93850
Al400      Al  0.83001524  0.67486176  0.77913697     1.55560
O401        O  0.75387657  0.71200023  0.82467674    -0.77880
C402        C  0.88397783  0.69510775  0.80838701     0.98020
C403        C  0.80747116  0.61929200  0.81225389     0.92900
O404        O  0.79559495  0.63473726  0.83430898    -0.83200
O405        O  0.81934175  0.86892344  0.71471117    -0.82660
C406        C  0.75895303  0.76489643  0.67121359     0.96690
O407        O  0.75188623  0.79203791  0.67951777    -0.71780
O408        O  0.75766506  0.84078662  0.71326310    -0.75370
Al409      Al  0.77597342  0.82868666  0.67530957     1.48980
C410        C  0.76322806  0.83189374  0.74030824     0.91950
O411        O  0.83857437  0.78942289  0.74395109    -0.81590
O412        O  0.86717946  0.78608176  0.68156585    -0.75150
Al413      Al  0.82759897  0.82709685  0.72504826     1.90120
O414        O  0.82261192  0.75340095  0.71182968    -0.74220
O415        O  0.82916273  0.79362856  0.63324059    -0.74070
O416        O  0.78640121  0.75797607  0.66388048    -0.79730
O417        O  0.78541820  0.81910451  0.63376515    -0.77930
O418        O  0.80992458  0.81080191  0.69117313    -1.14070
O419        O  0.79550909  0.86833405  0.67010331    -0.73260
C420        C  0.80694726  0.88328070  0.69260295     0.97460
C421        C  0.83145946  0.76176283  0.73837601     0.93850
Al422      Al  0.82522976  0.77607783  0.67398913     1.55560
O423        O  0.79014206  0.82391702  0.74820190    -0.77880
C424        C  0.80637423  0.80503280  0.61888708     0.98020
C425        C  0.88221014  0.80759723  0.69456616     0.92900
O426        O  0.86805915  0.83059892  0.70642445    -0.83200
O427        O  0.63143307  0.78388164  0.81774357    -0.82660
C428        C  0.73769803  0.82992176  0.76238553     0.96690
O429        O  0.71174761  0.81945352  0.75379355    -0.71780
O430        O  0.66276173  0.78333597  0.75752760    -0.75370
Al431      Al  0.67316642  0.82271812  0.77498070     1.48980
C432        C  0.66979545  0.75611214  0.76531686     0.91950
O433        O  0.71079126  0.75702957  0.84115942    -0.81590
O434        O  0.71012291  0.81984029  0.86928624    -0.75150
Al435      Al  0.67283056  0.77466460  0.82826956     1.90120
O436        O  0.74588233  0.79086023  0.82612175    -0.74220
O437        O  0.70246096  0.86807877  0.82917263    -0.74070
O438        O  0.74224926  0.83817846  0.78988873    -0.79730
O439        O  0.68080875  0.86478716  0.78358258    -0.77930
O440        O  0.68909601  0.80861357  0.81044228    -1.14070
O441        O  0.63223937  0.82739933  0.79170370    -0.73260
C442        C  0.61725559  0.80507787  0.80366981     0.97460
C443        C  0.73826628  0.76365390  0.83382684     0.93850
Al444      Al  0.72196086  0.82770963  0.82745470     1.55560
O445        O  0.67812669  0.75009947  0.79247569    -0.77880
C446        C  0.69185650  0.88107052  0.80504666     0.98020
C447        C  0.68808698  0.80583737  0.88276566     0.92900
O448        O  0.66617001  0.79439730  0.86718613    -0.83200
O449        O  0.67428876  0.62905408  0.70584959    -0.82660
C450        C  0.73560212  0.74032559  0.67129878     0.96690
O451        O  0.74349287  0.71330550  0.66314486    -0.71780
O452        O  0.75004945  0.67993589  0.71230305    -0.75370
Al453      Al  0.72800697  0.67354573  0.67552334     1.48980
C454        C  0.74341632  0.66862062  0.73836029     0.91950
O455        O  0.68037133  0.70521896  0.74921484    -0.81590
O456        O  0.63500054  0.69810757  0.67076239    -0.75150
Al457      Al  0.67758444  0.66844702  0.72590166     1.90120
O458        O  0.66004203  0.73700669  0.71506391    -0.74220
O459        O  0.68490633  0.71046296  0.63331196    -0.74070
O460        O  0.70844669  0.74591681  0.68051435    -0.79730
O461        O  0.70991950  0.66622183  0.63658414    -0.77930
O462        O  0.69278331  0.68713321  0.69221360    -1.14070
O463        O  0.72086418  0.63104278  0.68516243    -0.73260
C464        C  0.69843370  0.61540836  0.69598309     0.97460
C465        C  0.66971132  0.73145067  0.74211996     0.93850
Al466      Al  0.67342350  0.71989736  0.67596883     1.55560
O467        O  0.71677442  0.65765318  0.74390211    -0.77880
C468        C  0.69995516  0.68845685  0.62055798     0.98020
C469        C  0.62036855  0.68782710  0.69418672     0.92900
O470        O  0.63520095  0.67641595  0.71660111    -0.83200
C471        C  0.51703070  0.75154480  0.74197273    -0.00300
C472        C  0.48558639  0.75062133  0.74299879    -0.00300
O473        O  0.16901825  0.70601524  0.86802252    -0.82660
C474        C  0.23445878  0.67209204  0.75823879     0.96690
O475        O  0.24122410  0.66369809  0.78534879    -0.71780
O476        O  0.24691397  0.71184693  0.82169511    -0.75370
Al477      Al  0.22374532  0.67449470  0.82475986     1.48980
C478        C  0.23936652  0.73843421  0.83144765     0.91950
O479        O  0.17791665  0.75022249  0.79263137    -0.81590
O480        O  0.13339324  0.67096204  0.79674595    -0.75150
Al481      Al  0.17355529  0.72608801  0.82876623     1.90120
O482        O  0.15888829  0.71672735  0.75955675    -0.74220
O483        O  0.18180219  0.63525087  0.78368139    -0.74070
O484        O  0.20799888  0.68265031  0.75198301    -0.79730
O485        O  0.20486432  0.63425456  0.82857324    -0.77930
O486        O  0.18959092  0.69247296  0.81011950    -1.14070
O487        O  0.21427857  0.68269426  0.86715336    -0.73260
C488        C  0.19232175  0.69528977  0.88218304     0.97460
C489        C  0.16849794  0.74367326  0.76591059     0.93850
Al490      Al  0.17176318  0.67748669  0.77610146     1.55560
O491        O  0.21212302  0.74412633  0.84051812    -0.77880
C492        C  0.19438752  0.62005739  0.80508974     0.98020
C493        C  0.11756740  0.69369975  0.80641012     0.92900
O494        O  0.13088075  0.71657058  0.81921573    -0.83200
O495        O  0.13392415  0.82104917  0.71584069    -0.82660
C496        C  0.23765312  0.76243049  0.66828688     0.96690
O497        O  0.21111747  0.75477094  0.67823393    -0.71780
O498        O  0.16222551  0.76046374  0.71436605    -0.75370
Al499      Al  0.17388582  0.77818997  0.67512562     1.48980
C500        C  0.16997540  0.76730943  0.74170614     0.91950
O501        O  0.21532207  0.84231337  0.74195929    -0.81590
O502        O  0.21628974  0.87040388  0.68236775    -0.75150
Al503      Al  0.17615159  0.83035839  0.72466336     1.90120
O504        O  0.24896255  0.82348480  0.70852501    -0.74220
O505        O  0.20572346  0.83349305  0.63345179    -0.74070
O506        O  0.24333573  0.78981772  0.65983646    -0.79730
O507        O  0.18282681  0.78784900  0.63265229    -0.77930
O508        O  0.19159182  0.81236987  0.69053149    -1.14070
O509        O  0.13419886  0.79735183  0.67089598    -0.73260
C510        C  0.11940343  0.80832345  0.69386040     0.97460
C511        C  0.24229048  0.83289764  0.73533972     0.93850
Al512      Al  0.22543092  0.82822983  0.67240901     1.55560
O513        O  0.18011177  0.79391433  0.74829791    -0.77880
C514        C  0.19543079  0.81038593  0.61853607     0.98020
C515        C  0.19398197  0.88467474  0.69514328     0.92900
O516        O  0.17087232  0.86962497  0.70516778    -0.83200
O517        O  0.33300603  0.79598140  0.86647668    -0.82660
C518        C  0.26598843  0.83169637  0.75922692     0.96690
O519        O  0.25948703  0.83964743  0.78665280    -0.71780
O520        O  0.25449330  0.78996410  0.82130892    -0.75370
Al521      Al  0.27749737  0.82731262  0.82527472     1.48980
C522        C  0.26217634  0.76347069  0.83106077     0.91950
O523        O  0.32316333  0.75286135  0.79065052    -0.81590
O524        O  0.36862817  0.83129016  0.79359432    -0.75150
Al525      Al  0.32792723  0.77634847  0.82695725     1.90120
O526        O  0.34078124  0.78691420  0.75706653    -0.74220
O527        O  0.31957302  0.86829106  0.78494819    -0.74070
O528        O  0.29246657  0.82165905  0.75219301    -0.79730
O529        O  0.29658905  0.86693092  0.83047750    -0.77930
O530        O  0.31170367  0.81011169  0.80934036    -1.14070
O531        O  0.28707456  0.81776903  0.86712276    -0.73260
C532        C  0.30949675  0.80563125  0.88142889     0.97460
C533        C  0.33181871  0.75978115  0.76366114     0.93850
Al534      Al  0.32903733  0.82593274  0.77511402     1.55560
O535        O  0.28951619  0.75795852  0.83957891    -0.77880
C536        C  0.30743082  0.88224447  0.80783428     0.98020
C537        C  0.38394513  0.80809226  0.80267451     0.92900
O538        O  0.37017807  0.78592812  0.81631769    -0.83200
O539        O  0.28487749  0.63196577  0.68163173    -0.82660
C540        C  0.33028094  0.73615961  0.73953946     0.96690
O541        O  0.31978411  0.70975316  0.74630231    -0.71780
O542        O  0.28502826  0.66123996  0.74055206    -0.75370
Al543      Al  0.32430159  0.67316051  0.72307549     1.48980
C544        C  0.25806536  0.67050139  0.73401510     0.91950
O545        O  0.25758274  0.71255291  0.65832860    -0.81590
O546        O  0.31735788  0.71508038  0.63110630    -0.75150
Al547      Al  0.27564821  0.67414647  0.67111807     1.90120
O548        O  0.28921384  0.74758057  0.67752707    -0.74220
O549        O  0.36622329  0.70557633  0.66824189    -0.74070
O550        O  0.33849387  0.74266557  0.71218652    -0.79730
O551        O  0.36643599  0.68276429  0.71359552    -0.77930
O552        O  0.30904711  0.69051646  0.68902509    -1.14070
O553        O  0.33015458  0.63375256  0.70405991    -0.73260
C554        C  0.30726793  0.61824639  0.69454344     0.97460
C555        C  0.26278508  0.73977602  0.66778443     0.93850
Al556      Al  0.32654612  0.72469959  0.67332324     1.55560
O557        O  0.25144273  0.67925378  0.70710728    -0.77880
C558        C  0.38098424  0.69509125  0.69118261     0.98020
C559        C  0.30590173  0.69192205  0.61723243     0.92900
O560        O  0.29656930  0.66856324  0.63249939    -0.83200
C561        C  0.98517731  0.74543062  0.74355846    -0.00300
C562        C  0.01672481  0.74508359  0.74195127    -0.00300
C563        C  0.24407085  0.74620307  0.51682678    -0.00300
C564        C  0.24551605  0.74615680  0.48534591    -0.00300
C565        C  0.98414166  0.74816943  0.24783820    -0.00300
C566        C  0.01559251  0.74680266  0.24993416    -0.00300
O567        O  0.33227344  0.86674196  0.20611309    -0.82660
C568        C  0.26595010  0.75816818  0.17085027     0.96690
O569        O  0.25920901  0.78562323  0.16331348    -0.71780
O570        O  0.25403939  0.82086977  0.21246890    -0.75370
Al571      Al  0.27698929  0.82472020  0.17507669     1.48980
C572        C  0.26169525  0.83064063  0.23889922     0.91950
O573        O  0.32250190  0.79096765  0.24948172    -0.81590
O574        O  0.36825724  0.79463081  0.17098213    -0.75150
Al575      Al  0.32725312  0.82739080  0.22589641     1.90120
O576        O  0.34076540  0.75760435  0.21553350    -0.74220
O577        O  0.31936577  0.78439590  0.13451793    -0.74070
O578        O  0.29240698  0.75151949  0.18095810    -0.79730
O579        O  0.29585413  0.82949699  0.13516726    -0.77930
O580        O  0.31122518  0.80934073  0.19226007    -1.14070
O581        O  0.28650517  0.86706487  0.18409174    -0.73260
C582        C  0.30904597  0.88152277  0.19599492     0.97460
C583        C  0.33133448  0.76400162  0.24254343     0.93850
Al584      Al  0.32888626  0.77522160  0.17661211     1.55560
O585        O  0.28890758  0.83968169  0.24426806    -0.77880
C586        C  0.30630370  0.80638206  0.12025172     0.98020
C587        C  0.38348565  0.80443567  0.19389432     0.92900
O588        O  0.36952702  0.81745886  0.21627667    -0.83200
O589        O  0.13148611  0.79413284  0.32966591    -0.82660
C590        C  0.23892873  0.83062055  0.26394868     0.96690
O591        O  0.21187487  0.83989614  0.25845209    -0.71780
O592        O  0.17693468  0.79217066  0.25129431    -0.75370
Al593      Al  0.17317046  0.82823955  0.27617551     1.48980
C594        C  0.16780879  0.76508095  0.25744071     0.91950
O595        O  0.20672783  0.75039712  0.31892192    -0.81590
O596        O  0.20405204  0.82662205  0.36790751    -0.75150
Al597      Al  0.17037219  0.77441741  0.32364252     1.90120
O598        O  0.23997876  0.78377040  0.33809108    -0.74220
O599        O  0.21423099  0.86547965  0.32024606    -0.74070
O600        O  0.24625693  0.82038451  0.29027058    -0.79730
O601        O  0.16934994  0.86773864  0.29671470    -0.77930
O602        O  0.18863189  0.80886840  0.30943802    -1.14070
O603        O  0.13049932  0.81904361  0.28551343    -0.73260
C604        C  0.11640771  0.80510846  0.30727499     0.97460
C605        C  0.23312386  0.75665030  0.32959380     0.93850
Al606      Al  0.22297528  0.82313811  0.32766024     1.55560
O607        O  0.15847507  0.75811019  0.28427675    -0.77880
C608        C  0.19276435  0.88125748  0.30831141     0.98020
C609        C  0.19222756  0.80331189  0.38148767     0.92900
O610        O  0.17930307  0.78220124  0.36581722    -0.83200
O611        O  0.28311331  0.67977870  0.36903055    -0.82660
C612        C  0.32945783  0.73960057  0.26588809     0.96690
O613        O  0.31889819  0.74607174  0.29234558    -0.71780
O614        O  0.28356458  0.73928191  0.34052211    -0.75370
Al615      Al  0.32302554  0.72235030  0.32860820     1.48980
C616        C  0.25668914  0.73253479  0.33109983     0.91950
O617        O  0.25658842  0.65702333  0.28846490    -0.81590
O618        O  0.31685550  0.63045410  0.28600023    -0.75150
Al619      Al  0.27427981  0.66966530  0.32684642     1.90120
O620        O  0.28848627  0.67679629  0.25384581    -0.74220
O621        O  0.36534508  0.66837455  0.29531430    -0.74070
O622        O  0.33740498  0.71223247  0.25900261    -0.79730
O623        O  0.36548291  0.71352890  0.31893191    -0.77930
O624        O  0.30794179  0.68813850  0.31086117    -1.14070
O625        O  0.32836403  0.70298255  0.36774502    -0.73260
C626        C  0.30533581  0.69283909  0.38291536     0.97460
C627        C  0.26200284  0.66682536  0.26149344     0.93850
Al628      Al  0.32567003  0.67296510  0.27658173     1.55560
O629        O  0.25016821  0.70556995  0.32208035    -0.77880
C630        C  0.38002261  0.69154822  0.30580862     0.98020
C631        C  0.30500612  0.61609960  0.30877697     0.92900
O632        O  0.29478049  0.63092907  0.33201811    -0.83200
O633        O  0.13350577  0.71382058  0.18021884    -0.82660
C634        C  0.23704282  0.66742506  0.23897187     0.96690
O635        O  0.21077159  0.67805201  0.24652649    -0.71780
O636        O  0.16167100  0.71342551  0.24054254    -0.75370
Al637      Al  0.17367688  0.67406334  0.22334920     1.48980
C638        C  0.16941616  0.74087466  0.23366708     0.91950
O639        O  0.21560764  0.74033893  0.15924000    -0.81590
O640        O  0.21665491  0.68041304  0.13131490    -0.75150
Al641      Al  0.17611283  0.72305533  0.17086740     1.90120
O642        O  0.24898047  0.70696612  0.17815345    -0.74220
O643        O  0.20455363  0.63174513  0.16836534    -0.74070
O644        O  0.24255371  0.65821726  0.21181254    -0.79730
O645        O  0.18278190  0.63148656  0.21443562    -0.77930
O646        O  0.19141617  0.68914990  0.18909419    -1.14070
O647        O  0.13445258  0.66891009  0.20412362    -0.73260
C648        C  0.11937363  0.69159745  0.19338421     0.97460
C649        C  0.24240845  0.73388238  0.16900491     0.93850
Al650      Al  0.22511345  0.67071937  0.17342902     1.55560
O651        O  0.17970432  0.74738098  0.20710828    -0.77880
C652        C  0.19457107  0.61695651  0.19178532     0.98020
C653        C  0.19432347  0.69238361  0.11684714     0.92900
O654        O  0.17129014  0.70313014  0.13164563    -0.83200
C655        C  0.25164012  0.75026994  0.98442689    -0.00300
C656        C  0.24996001  0.75159301  0.01597684    -0.00300
C657        C  0.25420165  0.51513420  0.24672855    -0.00300
C658        C  0.25146067  0.48380433  0.24868033    -0.00300
C659        C  0.25051762  0.25023068  0.98608321    -0.00300
C660        C  0.25080767  0.25113970  0.01750068    -0.00300
C661        C  0.25367826  0.01513080  0.25515659    -0.00300
C662        C  0.25354905  0.98350134  0.25480303    -0.00300
O663        O  0.32923626  0.29512213  0.36895428    -0.82660
C664        C  0.26531212  0.32947341  0.26018877     0.96690
O665        O  0.25891535  0.33916562  0.28708795    -0.71780
O666        O  0.25162192  0.29121097  0.32253839    -0.75370
Al667      Al  0.27571785  0.32772245  0.32641396     1.48980
C668        C  0.25797163  0.26451495  0.33252851     0.91950
O669        O  0.31964320  0.25059988  0.29387690    -0.81590
O670        O  0.36737413  0.32813178  0.29740389    -0.75150
Al671      Al  0.32417317  0.27483230  0.33003382     1.90120
O672        O  0.34002370  0.28375442  0.26098450    -0.74220
O673        O  0.31947164  0.36549418  0.28562788    -0.74070
O674        O  0.29182996  0.31888345  0.25372658    -0.79730
O675        O  0.29574770  0.36737062  0.33059061    -0.77930
O676        O  0.30960926  0.30883662  0.31157330    -1.14070
O677        O  0.28422846  0.31878135  0.36910568    -0.73260
C678        C  0.30600659  0.30562223  0.38364650     0.97460
C679        C  0.33015303  0.25693731  0.26735520     0.93850
Al680      Al  0.32828211  0.32314141  0.27751995     1.55560
O681        O  0.28474663  0.25820475  0.34223653    -0.77880
C682        C  0.30674447  0.38113429  0.30700583     0.98020
C683        C  0.38186991  0.30482975  0.30762067     0.92900
O684        O  0.36695413  0.28292610  0.32047959    -0.83200
O685        O  0.21334598  0.13096120  0.31862619    -0.82660
C686        C  0.16787991  0.23579671  0.26196750     0.96690
O687        O  0.17676851  0.20911797  0.25381260    -0.71780
O688        O  0.21088593  0.15994679  0.25756084    -0.75370
Al689      Al  0.17290066  0.17177954  0.27651936     1.48980
C690        C  0.23857814  0.16688643  0.26323268     0.91950
O691        O  0.24168946  0.21253183  0.33831805    -0.81590
O692        O  0.18072819  0.21279883  0.36847188    -0.75150
Al693      Al  0.22360628  0.17326899  0.32734247     1.90120
O694        O  0.20738612  0.24683002  0.32315950    -0.74220
O695        O  0.13183808  0.20287602  0.33226710    -0.74070
O696        O  0.15911396  0.24128392  0.28926549    -0.79730
O697        O  0.13096310  0.18080365  0.28659785    -0.77930
O698        O  0.18912456  0.18901972  0.31053882    -1.14070
O699        O  0.16821716  0.13198734  0.29521093    -0.73260
C700        C  0.19107087  0.11696042  0.30567752     0.97460
C701        C  0.23438101  0.24012567  0.33166961     0.93850
Al702      Al  0.17114995  0.22269319  0.32710424     1.55560
O703        O  0.24655312  0.17623804  0.28970733    -0.77880
C704        C  0.11680848  0.19297542  0.30921658     0.98020
C705        C  0.19438796  0.19134028  0.38278119     0.92900
O706        O  0.20574572  0.16869043  0.36789636    -0.83200
O707        O  0.21393246  0.36744363  0.18368802    -0.82660
C708        C  0.16871638  0.26108378  0.23979406     0.96690
O709        O  0.17844100  0.28742578  0.24803595    -0.71780
O710        O  0.21372190  0.33655495  0.24389642    -0.75370
Al711      Al  0.17465647  0.32517746  0.22604272     1.48980
C712        C  0.24120469  0.32942526  0.23654687     0.91950
O713        O  0.24243570  0.28713503  0.16112117    -0.81590
O714        O  0.18218232  0.28522844  0.13324025    -0.75150
Al715      Al  0.22404032  0.32548943  0.17338536     1.90120
O716        O  0.20967415  0.25187392  0.17829655    -0.74220
O717        O  0.13330891  0.29446695  0.17041310    -0.74070
O718        O  0.16053252  0.25590840  0.21240998    -0.79730
O719        O  0.13238469  0.31629859  0.21643213    -0.77930
O720        O  0.19029378  0.30881277  0.19123886    -1.14070
O721        O  0.16945787  0.36537207  0.20854539    -0.73260
C722        C  0.19186544  0.38094907  0.19768639     0.97460
C723        C  0.23656053  0.25980580  0.16983804     0.93850
Al724      Al  0.17276359  0.27502223  0.17473025     1.55560
O725        O  0.24799358  0.32119174  0.20940971    -0.77880
C726        C  0.11827539  0.30451269  0.19365929     0.98020
C727        C  0.19401152  0.30786568  0.11902364     0.92900
O728        O  0.20458069  0.33080797  0.13401599    -0.83200
O729        O  0.36861198  0.18202767  0.21474231    -0.82660
C730        C  0.26157791  0.23727060  0.17118285     0.96690
O731        O  0.28772231  0.24549526  0.18118921    -0.71780
O732        O  0.33687034  0.24111105  0.21578110    -0.75370
Al733      Al  0.32555240  0.22378655  0.17669971     1.48980
C734        C  0.32985287  0.23342653  0.24311708     0.91950
O735        O  0.28860088  0.15718007  0.24332716    -0.81590
O736        O  0.28695337  0.12953488  0.18232634    -0.75150
Al737      Al  0.32665144  0.17057196  0.22473537     1.90120
O738        O  0.25312192  0.17420143  0.21133103    -0.74220
O739        O  0.29488256  0.16872591  0.13353892    -0.74070
O740        O  0.25635337  0.20965191  0.16318580    -0.79730
O741        O  0.31666617  0.21477681  0.13484632    -0.77930
O742        O  0.30961399  0.18851225  0.19155568    -1.14070
O743        O  0.36587537  0.20678580  0.17060993    -0.73260
C744        C  0.38176439  0.19661911  0.19284144     0.97460
C745        C  0.26120006  0.16570112  0.23799346     0.93850
Al746      Al  0.27599524  0.17166217  0.17393800     1.55560
O747        O  0.32161187  0.20618593  0.24952473    -0.77880
C748        C  0.30523215  0.19260325  0.11961032     0.98020
C749        C  0.30990633  0.11609666  0.19441366     0.92900
O750        O  0.33269214  0.13185218  0.20410030    -0.83200
C751        C  0.98468597  0.25233324  0.25455977    -0.00300
C752        C  0.01602397  0.25101732  0.25224423    -0.00300
C753        C  0.06736374  0.31454041  0.21943163    -0.27180
C754        C  0.08487726  0.29707046  0.19792620    -0.15260
C755        C  0.07364204  0.26765625  0.18880333     0.35370
C756        C  0.04841261  0.25443239  0.20466518    -0.26630
C757        C  0.03404103  0.26997104  0.22947074    -0.15870
C758        C  0.04177956  0.30131601  0.23518567     0.36460
N759        N  0.02447783  0.31921962  0.25752265    -0.90120
H760        H  0.07536590  0.33750034  0.22601717     0.17570
H761        H  0.04166540  0.23089621  0.19903153     0.17560
N762        N  0.08969091  0.24966854  0.16577597    -0.89150
H763        H  0.03275549  0.34206570  0.25830727     0.34940
H764        H  0.02818167  0.30979945  0.27942687     0.40040
H765        H  0.07390200  0.24395008  0.14837396     0.39660
H766        H  0.09717153  0.22901758  0.17605484     0.34550
C767        C  0.06741173  0.18546266  0.28107070    -0.27180
C768        C  0.08366190  0.20107005  0.30464461    -0.15260
C769        C  0.07207454  0.22980886  0.31551049     0.35370
C770        C  0.04789185  0.24431824  0.29938374    -0.26630
C771        C  0.03469406  0.23065884  0.27301125    -0.15870
C772        C  0.04328941  0.19993882  0.26491185     0.36460
N773        N  0.02923629  0.18323752  0.23975601    -0.90120
H774        H  0.07557613  0.16302555  0.27297422     0.17570
H775        H  0.04060073  0.26729544  0.30642723     0.17560
N776        N  0.08678349  0.24561860  0.34086538    -0.89150
H777        H  0.04636165  0.17931126  0.22290257     0.34940
H778        H  0.01180147  0.19618854  0.22929279     0.40040
H779        H  0.08318961  0.23215195  0.36072586     0.39660
H780        H  0.07618055  0.26706945  0.34512020     0.34550
C781        C  0.20714276  0.04894408  0.25421272    -0.27180
C782        C  0.22938301  0.03338438  0.27192006    -0.15260
C783        C  0.23178586  0.04040895  0.30372239     0.35370
C784        C  0.21497506  0.06554630  0.31618739    -0.26630
C785        C  0.19578703  0.08383416  0.29734839    -0.15870
C786        C  0.19028646  0.07399271  0.26660207     0.36460
N787        N  0.17021138  0.09136104  0.24678288    -0.90120
H788        H  0.20474382  0.04335024  0.22983637     0.17570
H789        H  0.21930158  0.07263165  0.33989290     0.17560
N790        N  0.25278393  0.02356097  0.32296054    -0.89150
H791        H  0.15327594  0.07622245  0.23826439     0.34940
H792        H  0.18332946  0.09950985  0.22797338     0.40040
H793        H  0.23986518  0.01361305  0.34101405     0.39660
H794        H  0.26828105  0.03938647  0.33284724     0.34550
C795        C  0.27074871  0.03865882  0.20471172    -0.27180
C796        C  0.27626449  0.03399450  0.23641685    -0.15260
C797        C  0.29908585  0.05228765  0.25115107     0.35370
C798        C  0.31412139  0.07612764  0.23461203    -0.26630
C799        C  0.30598012  0.08315478  0.20397560    -0.15870
C800        C  0.28557324  0.06272955  0.18820745     0.36460
N801        N  0.27798271  0.06690832  0.15608107    -0.90120
H802        H  0.25307574  0.02505648  0.19319675     0.17570
H803        H  0.32964657  0.09155906  0.24696978     0.17560
N804        N  0.30513339  0.04838788  0.28358178    -0.89150
H805        H  0.28371786  0.04630340  0.14450651     0.34940
H806        H  0.29202862  0.08400871  0.14603134     0.40040
H807        H  0.31731759  0.02764358  0.28604505     0.39660
H808        H  0.31988124  0.06588237  0.29169512     0.34550
C809        C  0.29975080  0.23707320  0.04491451    -0.27180
C810        C  0.26957302  0.22892271  0.03615658    -0.15260
C811        C  0.25558886  0.20261543  0.04971074     0.35370
C812        C  0.27019045  0.18741276  0.07450465    -0.26630
C813        C  0.29846528  0.19849687  0.08636555    -0.15870
C814        C  0.31439189  0.22218564  0.06963030     0.36460
N815        N  0.34483298  0.23271785  0.07794606    -0.90120
H816        H  0.31116790  0.25680952  0.03434782     0.17570
H817        H  0.25768415  0.16911452  0.08652298     0.17560
N818        N  0.22564664  0.19249665  0.03960400    -0.89150
H819        H  0.34384924  0.24533524  0.09860154     0.34940
H820        H  0.35919594  0.21337474  0.08074601     0.40040
H821        H  0.21044981  0.19324926  0.05860220     0.39660
H822        H  0.22756192  0.16935860  0.03239967     0.34550
C823        C  0.23026361  0.31436149  0.07488708    -0.27180
C824        C  0.20136804  0.30344072  0.08566427    -0.15260
C825        C  0.18557288  0.28072955  0.06778164     0.35370
C826        C  0.20096920  0.26611570  0.04315619    -0.26630
C827        C  0.23170382  0.27376415  0.03555816    -0.15870
C828        C  0.24569171  0.29956194  0.05006917     0.36460
N829        N  0.27643594  0.30909444  0.04109450    -0.90120
H830        H  0.24245390  0.33205125  0.08795336     0.17570
H831        H  0.18970052  0.24672419  0.03197596     0.17560
N832        N  0.15452829  0.27080691  0.07492324    -0.89150
H833        H  0.28384848  0.32778730  0.05469403     0.34940
H834        H  0.27526964  0.31730062  0.01835997     0.40040
H835        H  0.14053275  0.29046691  0.07764992     0.39660
H836        H  0.15420921  0.25788834  0.09536290     0.34550
C837        C  0.20387474  0.45138720  0.24770606    -0.27180
C838        C  0.22787615  0.46578824  0.23095614    -0.15260
C839        C  0.23252539  0.45751606  0.19970456     0.35370
C840        C  0.21638148  0.43205625  0.18725771    -0.26630
C841        C  0.19601065  0.41429161  0.20573151    -0.15870
C842        C  0.18802208  0.42572044  0.23564501     0.36460
N843        N  0.16630469  0.41021588  0.25562811    -0.90120
H844        H  0.19942006  0.45824170  0.27150755     0.17570
H845        H  0.22227227  0.42424045  0.16404887     0.17560
N846        N  0.25501379  0.47347940  0.18110072    -0.89150
H847        H  0.17497385  0.38832335  0.26129409     0.34940
H848        H  0.14523329  0.40783408  0.24398770     0.40040
H849        H  0.24352423  0.48290752  0.16204137     0.39660
H850        H  0.27100437  0.45721616  0.17269542     0.34550
C851        C  0.31291435  0.42647241  0.27240488    -0.27180
C852        C  0.30016314  0.41453296  0.30013251    -0.15260
C853        C  0.27565258  0.43142754  0.31453400     0.35370
C854        C  0.26226030  0.45678354  0.29901545    -0.26630
C855        C  0.27204631  0.46500760  0.26900438    -0.15870
C856        C  0.29835426  0.45046203  0.25623597     0.36460
N857        N  0.30883536  0.45811061  0.22560155    -0.90120
H858        H  0.33217557  0.41474545  0.26110213     0.17890
H859        H  0.24227827  0.46826104  0.30923466     0.17560
N860        N  0.26242311  0.42237682  0.34369962    -0.89150
H861        H  0.33226341  0.46432727  0.22678916     0.34940
H862        H  0.30739512  0.43801269  0.21201521     0.40040
H863        H  0.28026479  0.42064777  0.35990614     0.39660
H864        H  0.25157610  0.40079786  0.34123998     0.34550
C865        C  0.23371012  0.57576021  0.18686265    -0.27180
C866        C  0.20367451  0.58404279  0.19661008    -0.15260
C867        C  0.18794958  0.56437389  0.21796220     0.35370
C868        C  0.20378670  0.53940755  0.23152239    -0.26630
C869        C  0.23529901  0.53411864  0.22492830    -0.15870
C870        C  0.24996974  0.55162945  0.20136262     0.36460
N871        N  0.28217729  0.54669533  0.19406712    -0.90120
H872        H  0.24603736  0.59049177  0.17053455     0.17570
H873        H  0.19224231  0.52583987  0.24935621     0.17560
N874        N  0.15634511  0.56971019  0.22710762    -0.89150
H875        H  0.28984642  0.56229722  0.17709180     0.34940
H876        H  0.28452337  0.52451170  0.18457205     0.40040
H877        H  0.14289149  0.57144294  0.20711375     0.39660
H878        H  0.15474166  0.59048220  0.23952889     0.34550
C879        C  0.23812706  0.70150559  0.04263710    -0.27180
C880        C  0.22827951  0.73130632  0.03408508    -0.15260
C881        C  0.20077247  0.74331463  0.04741863     0.35370
C882        C  0.18635199  0.72726035  0.07204985    -0.26630
C883        C  0.19879677  0.69933354  0.08335758    -0.15870
C884        C  0.22293331  0.68481067  0.06616232     0.36460
N885        N  0.23401559  0.65417182  0.07345194    -0.90120
H886        H  0.25886336  0.69169730  0.03237478     0.17570
H887        H  0.16739215  0.73831604  0.08446639     0.17560
N888        N  0.18887784  0.77279967  0.03749414    -0.89150
H889        H  0.23306689  0.64097953  0.05309657     0.34940
H890        H  0.21871909  0.64304115  0.08872489     0.40040
H891        H  0.18148914  0.77018935  0.01465424     0.39660
H892        H  0.16924358  0.77894607  0.05049973     0.34550
C893        C  0.31599150  0.56548511  0.28358881    -0.27180
C894        C  0.29753521  0.58277050  0.30433624    -0.15260
C895        C  0.26739256  0.57181842  0.31171164     0.35370
C896        C  0.25473881  0.54725919  0.29435845    -0.26630
C897        C  0.27175685  0.53313208  0.27038555    -0.15870
C898        C  0.30334659  0.54069439  0.26662257     0.36460
N899        N  0.32222694  0.52454860  0.24448314    -0.90120
H900        H  0.33937838  0.57321702  0.27819593     0.17570
H901        H  0.23065787  0.54072012  0.29787397     0.17560
N902        N  0.24851654  0.58775015  0.33427628    -0.89150
H903        H  0.33168310  0.54084668  0.22912790     0.34940
H904        H  0.34067841  0.51449652  0.25645009     0.40040
H905        H  0.25896562  0.58475584  0.35586149     0.39660
H906        H  0.22650780  0.57756293  0.33589903     0.34550
C907        C  0.18664028  0.92947948  0.27660861    -0.27180
C908        C  0.19924895  0.91486146  0.30279091    -0.15260
C909        C  0.22493007  0.92905672  0.31736099     0.35370
C910        C  0.24066077  0.95350972  0.30267705    -0.26630
C911        C  0.23102562  0.96485569  0.27390317    -0.15870
C912        C  0.20221023  0.95458161  0.26211298     0.36460
N913        N  0.18932759  0.96884152  0.23503509    -0.90120
H914        H  0.16644516  0.91945012  0.26557325     0.17570
H915        H  0.26153703  0.96232619  0.31323510     0.17560
N916        N  0.23658458  0.91719513  0.34603746    -0.89150
H917        H  0.16681023  0.96060997  0.23127586     0.34940
H918        H  0.20240273  0.96156555  0.21596886     0.40040
H919        H  0.23657107  0.93533036  0.36220126     0.39660
H920        H  0.25959278  0.91023239  0.34245869     0.34550
C921        C  0.31643429  0.92575054  0.23206243    -0.27180
C922        C  0.30442881  0.91483918  0.20389854    -0.15260
C923        C  0.28116481  0.93243223  0.18911205     0.35370
C924        C  0.26742491  0.95761388  0.20487917    -0.26630
C925        C  0.27597634  0.96522513  0.23529897    -0.15870
C926        C  0.30235887  0.95047030  0.24807886     0.36460
N927        N  0.31490641  0.95908290  0.27760057    -0.90120
H928        H  0.33477391  0.91298569  0.24344636     0.17570
H929        H  0.24845788  0.96985342  0.19414894     0.17560
N930        N  0.26997551  0.92319008  0.15915425    -0.89150
H931        H  0.31146523  0.94044904  0.29278061     0.34940
H932        H  0.30333548  0.97819211  0.28687629     0.40040
H933        H  0.28838482  0.92552641  0.14339925     0.39660
H934        H  0.25243610  0.93815517  0.15173603     0.34550
C935        C  0.31344339  0.77651684  0.07148384    -0.27180
C936        C  0.29862133  0.80122845  0.08696787    -0.15260
C937        C  0.27172895  0.81416174  0.07350069     0.35370
C938        C  0.25823110  0.79938936  0.04772873    -0.26630
C939        C  0.27075160  0.77201923  0.03499190    -0.15870
C940        C  0.29979168  0.76151098  0.04613174     0.36460
N941        N  0.31502382  0.73430402  0.03421331    -0.90120
H942        H  0.33445114  0.76664383  0.08101565     0.17570
H943        H  0.23619110  0.80781861  0.03951477     0.17560
N944        N  0.25620736  0.84012376  0.08773080    -0.89150
H945        H  0.33651048  0.74129727  0.02517493     0.34940
H946        H  0.30285518  0.72480882  0.01583008     0.40040
H947        H  0.24402326  0.83166090  0.10699788     0.39660
H948        H  0.23945414  0.84912897  0.07281123     0.34550
C949        C  0.06889386  0.71857139  0.18549987    -0.27180
C950        C  0.08598154  0.69583009  0.20139221    -0.15260
C951        C  0.07408992  0.68445603  0.22986848     0.35370
C952        C  0.04897662  0.69979577  0.24410783    -0.26630
C953        C  0.03479967  0.72551902  0.23017603    -0.15870
C954        C  0.04326245  0.73327584  0.19956319     0.36460
N955        N  0.02698138  0.75705635  0.18322532    -0.90120
H956        H  0.07705565  0.72690614  0.16318187     0.17570
H957        H  0.04146091  0.69256950  0.26696584     0.17560
N958        N  0.08918058  0.65930904  0.24564019    -0.89150
H959        H  0.01757534  0.74704269  0.16328669     0.34940
H960        H  0.04312922  0.77379400  0.17606662     0.40040
H961        H  0.08649119  0.63938981  0.23199439     0.39660
H962        H  0.07820581  0.65465642  0.26683491     0.34550
C963        C  0.04735788  0.75282313  0.29781179    -0.27180
C964        C  0.03336247  0.76678175  0.27210801    -0.15260
C965        C  0.04130866  0.79781559  0.26474832     0.35370
C966        C  0.06614963  0.81227460  0.28020133    -0.26630
C967        C  0.08335211  0.79628938  0.30263824    -0.15870
C968        C  0.07221961  0.76717039  0.31308040     0.36460
N969        N  0.08781868  0.75063507  0.33717473    -0.90120
H970        H  0.04068520  0.72958274  0.30469665     0.17570
H971        H  0.07400406  0.83495817  0.27252836     0.17560
N972        N  0.02537752  0.81405167  0.24058299    -0.89150
H973        H  0.09571955  0.72951062  0.32806120     0.34940
H974        H  0.07163751  0.74575006  0.35468812     0.40040
H975        H  0.03141579  0.80367312  0.21959181     0.39660
H976        H  0.03302308  0.83709185  0.23919087     0.34550
C977        C  0.29250717  0.74436948  0.45188071    -0.27180
C978        C  0.26904528  0.72773353  0.46737092    -0.15260
C979        C  0.26460439  0.69607158  0.45982310     0.35370
C980        C  0.28019137  0.68337317  0.43396000    -0.26630
C981        C  0.30057387  0.70143545  0.41590844    -0.15870
C982        C  0.30823306  0.73161639  0.42627177     0.36460
N983        N  0.32945903  0.75068089  0.40901432    -0.90120
H984        H  0.29676025  0.76844396  0.45794861     0.17570
H985        H  0.27462534  0.65997430  0.42645548     0.17560
N986        N  0.24319621  0.67732321  0.47722309    -0.89150
H987        H  0.34707709  0.75786079  0.42396136     0.34940
H988        H  0.31755997  0.77045178  0.40156563     0.40040
H989        H  0.25401656  0.67219866  0.49816335     0.39660
H990        H  0.23973570  0.65590863  0.46627461     0.34550
C991        C  0.23471864  0.79602030  0.45762661    -0.27180
C992        C  0.22476116  0.76608837  0.46625153    -0.15260
C993        C  0.19861001  0.75310252  0.45138223     0.35370
C994        C  0.18490084  0.76901756  0.42687829    -0.26630
C995        C  0.19781252  0.79661973  0.41494125    -0.15870
C996        C  0.22165985  0.81140201  0.43189876     0.36460
N997        N  0.23413705  0.84065406  0.42165807    -0.90120
H998        H  0.25444345  0.80622320  0.46933018     0.17570
H999        H  0.16590833  0.75769437  0.41494987     0.17560
N1000       N  0.18633421  0.72298877  0.45913745    -0.89150
H1001       H  0.25202014  0.84794269  0.43624455     0.34940
H1002       H  0.21645185  0.85716244  0.42373256     0.40040
H1003       H  0.19703609  0.71367191  0.47855899     0.39660
H1004       H  0.19101174  0.70806790  0.44052495     0.34550
C1005       C  0.26517252  0.68749717  0.57833738    -0.27180
C1006       C  0.29585038  0.69618682  0.58476538    -0.15260
C1007       C  0.31142190  0.71646537  0.56393899     0.35370
C1008       C  0.29503193  0.72991970  0.53936093    -0.26630
C1009       C  0.26307894  0.72449913  0.53585992    -0.15870
C1010       C  0.24833202  0.70218453  0.55489598     0.36460
N1011       N  0.21568364  0.69616589  0.55195779    -0.90120
H1012       H  0.25296102  0.67202797  0.59406182     0.17570
H1013       H  0.30660736  0.74683996  0.52469363     0.17560
N1014       N  0.34345376  0.72458822  0.56771762    -0.89150
H1015       H  0.20809097  0.68016429  0.56859255     0.34940
H1016       H  0.21198503  0.68580551  0.53040964     0.40040
H1017       H  0.35635686  0.70407790  0.56906324     0.39660
H1018       H  0.34620463  0.73707155  0.58827777     0.34550
C1019       C  0.27937251  0.81328883  0.92987825    -0.27180
C1020       C  0.30419623  0.79809492  0.91480435    -0.15260
C1021       C  0.31618898  0.77074344  0.92857335     0.35370
C1022       C  0.30081551  0.75749350  0.95412243    -0.26630
C1023       C  0.27329318  0.77039942  0.96607943    -0.15870
C1024       C  0.26337661  0.79943129  0.95479591     0.36460
N1025       N  0.23549606  0.81341934  0.96675372    -0.90120
H1026       H  0.27027465  0.83457959  0.92011346     0.17570
H1027       H  0.30894456  0.73537466  0.96265920     0.17560
N1028       N  0.34213940  0.75426430  0.91574228    -0.89150
H1029       H  0.22977120  0.83323363  0.95402496     0.34940
H1030       H  0.24028958  0.82117235  0.98910429     0.40040
H1031       H  0.36089566  0.76960703  0.91378555     0.39660
H1032       H  0.33628014  0.74583763  0.89383671     0.34550
C1033       C  0.18398253  0.78832348  0.56648814    -0.27180
C1034       C  0.20389815  0.80567040  0.58551173    -0.15260
C1035       C  0.23514807  0.80939214  0.57623035     0.35370
C1036       C  0.24679630  0.79218626  0.55112688    -0.26630
C1037       C  0.22789695  0.77129657  0.53482702    -0.15870
C1038       C  0.19554778  0.77146967  0.54081439     0.36460
N1039       N  0.17461660  0.75404476  0.52174102    -0.90120
H1040       H  0.15981403  0.78580913  0.57320302     0.17570
H1041       H  0.27145747  0.79319270  0.54603840     0.17560
N1042       N  0.25603192  0.82792752  0.59420728    -0.89150
H1043       H  0.15159300  0.75907072  0.52770762     0.34940
H1044       H  0.17765079  0.73055474  0.52650137     0.40040
H1045       H  0.26599955  0.84458739  0.57957516     0.39660
H1046       H  0.27377725  0.81354056  0.60225795     0.34550
C1047       C  0.04477082  0.76257231  0.69380246    -0.27180
C1048       C  0.03448628  0.76895896  0.72408684    -0.15260
C1049       C  0.04682656  0.79478914  0.73973609     0.35370
C1050       C  0.07186480  0.81118133  0.72671556    -0.26630
C1051       C  0.08579007  0.80135955  0.69870404    -0.15870
C1052       C  0.07043688  0.77839280  0.68103874     0.36460
N1053       N  0.08221246  0.76922651  0.65127865    -0.90120
H1054       H  0.03498500  0.74331057  0.68105278     0.17570
H1055       H  0.08251017  0.82941774  0.74038257     0.17560
N1056       N  0.03553969  0.80290161  0.76999602    -0.89150
H1057       H  0.06447643  0.77205949  0.63511570     0.34940
H1058       H  0.08776405  0.74559005  0.65220307     0.40040
H1059       H  0.02802392  0.82598409  0.76935787     0.39660
H1060       H  0.05405879  0.80155233  0.78547579     0.34550
C1061       C  0.20304467  0.74369009  0.95402646    -0.27180
C1062       C  0.23027369  0.73020829  0.96566213    -0.15260
C1063       C  0.23925229  0.70057123  0.95427472     0.35370
C1064       C  0.22257313  0.68688807  0.93004083    -0.26630
C1065       C  0.19800111  0.70245014  0.91550928    -0.15870
C1066       C  0.18672481  0.73015701  0.92917613     0.36460
N1067       N  0.16058818  0.74600573  0.91606640    -0.90120
H1068       H  0.19586242  0.76620409  0.96259778     0.17570
H1069       H  0.23114552  0.66525818  0.92031239     0.17560
N1070       N  0.26605794  0.68428501  0.96525261    -0.89150
H1071       H  0.15596444  0.76658874  0.92815856     0.34940
H1072       H  0.14116555  0.73170216  0.91914800     0.40040
H1073       H  0.27667727  0.69623862  0.98317292     0.39660
H1074       H  0.28216726  0.68317373  0.94703022     0.34550
C1075       C  0.07975413  0.68843814  0.76468802    -0.27180
C1076       C  0.08518039  0.69734622  0.79551267    -0.15260
C1077       C  0.06337118  0.71697106  0.81052626     0.35370
C1078       C  0.03903284  0.72993848  0.79324087    -0.26630
C1079       C  0.03602742  0.72389391  0.76134268    -0.15870
C1080       C  0.05615930  0.70213012  0.74720331     0.36460
N1081       N  0.05457100  0.69610567  0.71446551    -0.90120
H1082       H  0.09624160  0.67342937  0.75291192     0.17570
H1083       H  0.02384870  0.74670841  0.80431660     0.17560
N1084       N  0.06606118  0.72536217  0.84267459    -0.89150
H1085       H  0.07320873  0.68234174  0.70710012     0.34940
H1086       H  0.03464623  0.68303829  0.71034531     0.40040
H1087       H  0.08362409  0.71262099  0.85330519     0.39660
H1088       H  0.04549850  0.71854928  0.85378641     0.34550
C1089       C  0.45636291  0.74002467  0.69461348    -0.27180
C1090       C  0.46725279  0.72913786  0.72314706    -0.15260
C1091       C  0.45468045  0.70158072  0.73557439     0.35370
C1092       C  0.42900289  0.68772610  0.72125518    -0.26630
C1093       C  0.41467337  0.70157885  0.69552465    -0.15870
C1094       C  0.43010400  0.72678960  0.68076177     0.36460
N1095       N  0.41849605  0.74115974  0.65327239    -0.90120
H1096       H  0.46631023  0.76094678  0.68468315     0.17570
H1097       H  0.41825586  0.66773515  0.73222745     0.17560
N1098       N  0.46640213  0.68911087  0.76401679    -0.89150
H1099       H  0.39719839  0.75167431  0.65825053     0.34940
H1100       H  0.41552696  0.72403497  0.63631945     0.40040
H1101       H  0.48833287  0.68002206  0.75921336     0.39660
H1102       H  0.45281700  0.67038066  0.77153196     0.34550
C1103       C  0.45276139  0.79791362  0.74873343    -0.27180
C1104       C  0.46699593  0.77236099  0.76279231    -0.15260
C1105       C  0.45868084  0.76475516  0.79350456     0.35370
C1106       C  0.43403132  0.78039929  0.80817635    -0.26630
C1107       C  0.41671540  0.80305212  0.79247507    -0.15870
C1108       C  0.42771875  0.81321211  0.76299611     0.36460
N1109       N  0.41254718  0.83701794  0.74561765    -0.90120
H1110       H  0.45938790  0.80433673  0.72531556     0.17570
H1111       H  0.42651301  0.77258415  0.83090574     0.17560
N1112       N  0.47377889  0.73985358  0.80928940    -0.89150
H1113       H  0.41099637  0.85704272  0.75929578     0.34940
H1114       H  0.39036248  0.82941093  0.73966409     0.40040
H1115       H  0.45690201  0.72355772  0.81573594     0.39660
H1116       H  0.48332800  0.74886477  0.82963546     0.34550
C1117       C  0.57298007  0.71897240  0.68196771    -0.27180
C1118       C  0.58677008  0.69493894  0.69915325    -0.15260
C1119       C  0.57156347  0.68470110  0.72655570     0.35370
C1120       C  0.54701415  0.70229775  0.73900952    -0.26630
C1121       C  0.53585015  0.72868626  0.72378240    -0.15870
C1122       C  0.54755798  0.73578768  0.69406427     0.36460
N1123       N  0.53495090  0.76119641  0.67691866    -0.90120
H1124       H  0.58370924  0.72679958  0.66056101     0.17570
H1125       H  0.53817752  0.69670106  0.76186667     0.17560
N1126       N  0.58270581  0.65794099  0.74300061    -0.89150
H1127       H  0.55303600  0.77658835  0.67168069     0.34940
H1128       H  0.52660911  0.75239783  0.65596217     0.40040
H1129       H  0.57969592  0.63863851  0.72856984     0.39660
H1130       H  0.56931232  0.65388464  0.76290747     0.34550
C1131       C  0.57209933  0.81409997  0.76935018    -0.27180
C1132       C  0.58407629  0.79973962  0.79600970    -0.15260
C1133       C  0.56738517  0.77425315  0.80892570     0.35370
C1134       C  0.54355129  0.76044811  0.79202227    -0.26630
C1135       C  0.53491768  0.77205914  0.76309614    -0.15870
C1136       C  0.54764610  0.80034876  0.75279932     0.36460
N1137       N  0.53702220  0.81422245  0.72469317    -0.90120
H1138       H  0.58370003  0.83416864  0.75944385     0.17570
H1139       H  0.53357038  0.73892719  0.80042239     0.17560
N1140       N  0.57509961  0.76058180  0.83816813    -0.89150
H1141       H  0.55614463  0.81697128  0.70988320     0.34940
H1142       H  0.52863499  0.83638765  0.73008016     0.40040
H1143       H  0.57835889  0.77828256  0.85446729     0.39660
H1144       H  0.59528008  0.74734680  0.83595374     0.34550
C1145       C  0.92978696  0.77719275  0.68347618    -0.27180
C1146       C  0.91580251  0.80160585  0.70021512    -0.15260
C1147       C  0.93051636  0.81228869  0.72742535     0.35370
C1148       C  0.95565332  0.79528687  0.73959218    -0.26630
C1149       C  0.96639575  0.76799923  0.72509171    -0.15870
C1150       C  0.95453194  0.76014381  0.69559074     0.36460
N1151       N  0.96565731  0.73409630  0.67791943    -0.90120
H1152       H  0.91947763  0.76922395  0.66202147     0.17570
H1153       H  0.96540659  0.80207873  0.76165546     0.17560
N1154       N  0.91829644  0.83857188  0.74405990    -0.89150
H1155       H  0.94853783  0.71684339  0.67857643     0.34940
H1156       H  0.98577053  0.72487792  0.68734333     0.40040
H1157       H  0.92108934  0.85805854  0.72984873     0.39660
H1158       H  0.93124702  0.84282592  0.76403306     0.34550
C1159       C  0.93048685  0.68372047  0.77589415    -0.27180
C1160       C  0.91732417  0.70030207  0.80072703    -0.15260
C1161       C  0.93269183  0.72741459  0.81120732     0.35370
C1162       C  0.95730518  0.73993856  0.79378479    -0.26630
C1163       C  0.96738304  0.72577920  0.76621776    -0.15870
C1164       C  0.95543297  0.69595922  0.75865387     0.36460
N1165       N  0.96660543  0.67821910  0.73274069    -0.90120
H1166       H  0.91958143  0.66249141  0.76786246     0.17570
H1167       H  0.96702703  0.76212010  0.80066758     0.17560
N1168       N  0.92191001  0.74365427  0.83824203    -0.89150
H1169       H  0.97453453  0.65695832  0.74130195     0.34940
H1170       H  0.98596521  0.68887957  0.72308126     0.40040
H1171       H  0.94038507  0.74540978  0.85373216     0.39660
H1172       H  0.91561083  0.76615569  0.83165850     0.34550
C1173       C  0.74478784  0.54408873  0.71069374    -0.27180
C1174       C  0.72995278  0.53352776  0.73765852    -0.15260
C1175       C  0.69970573  0.54392176  0.74451685     0.35370
C1176       C  0.68679243  0.56814402  0.72703978    -0.26630
C1177       C  0.70389958  0.58212313  0.70292156    -0.15870
C1178       C  0.73177577  0.56783956  0.69293460     0.36460
N1179       N  0.74822802  0.57902764  0.66618310    -0.90120
H1180       H  0.76767685  0.53566139  0.70459556     0.17570
H1181       H  0.66490541  0.57810152  0.73457343     0.17560
N1182       N  0.68274955  0.53120961  0.77017505    -0.89150
H1183       H  0.75109145  0.56044250  0.65078405     0.34940
H1184       H  0.77026359  0.58636713  0.67316139     0.40040
H1185       H  0.66214567  0.52171343  0.76164582     0.39660
H1186       H  0.67677077  0.54945582  0.78508375     0.34550
C1187       C  0.79721669  0.54519912  0.76886485    -0.27180
C1188       C  0.76886653  0.53472678  0.78113316    -0.15260
C1189       C  0.75846791  0.54722550  0.80978966     0.35370
C1190       C  0.77422006  0.57281905  0.82274240    -0.26630
C1191       C  0.80087212  0.58540900  0.80839329    -0.15870
C1192       C  0.81437950  0.56871302  0.78332266     0.36460
N1193       N  0.84429857  0.57660921  0.77051205    -0.90120
H1194       H  0.80565839  0.53592430  0.74705075     0.17570
H1195       H  0.76398059  0.58443601  0.84263339     0.17560
N1196       N  0.73155259  0.53543432  0.82573719    -0.89150
H1197       H  0.85726847  0.55610755  0.76925759     0.34940
H1198       H  0.85656798  0.59052095  0.78607952     0.40040
H1199       H  0.72254168  0.51586932  0.81462678     0.39660
H1200       H  0.71457180  0.55275444  0.82559166     0.34550
C1201       C  0.73018853  0.42886474  0.69388431    -0.27180
C1202       C  0.70296482  0.41493509  0.70562096    -0.15260
C1203       C  0.68715421  0.42990036  0.73034069     0.35370
C1204       C  0.70151149  0.45506929  0.74569435    -0.26630
C1205       C  0.73106017  0.46575743  0.73664681    -0.15870
C1206       C  0.74454232  0.45371067  0.70915053     0.36460
N1207       N  0.77342107  0.46502312  0.69670099    -0.90120
H1208       H  0.74215170  0.41860163  0.67419256     0.17570
H1209       H  0.69071366  0.46477832  0.76628453     0.17560
N1210       N  0.65782410  0.41815559  0.74128756    -0.89150
H1211       H  0.78987714  0.44734685  0.69894596     0.34940
H1212       H  0.78142926  0.48425202  0.70895207     0.40040
H1213       H  0.64182095  0.42102889  0.72341415     0.39660
H1214       H  0.64968702  0.43138649  0.75999898     0.34550
C1215       C  0.81454151  0.43405483  0.79022851    -0.27180
C1216       C  0.79728401  0.41391039  0.80916286    -0.15260
C1217       C  0.76652486  0.42218489  0.81741246     0.35370
C1218       C  0.75265354  0.44807820  0.80360822    -0.26630
C1219       C  0.76863340  0.46566885  0.78134513    -0.15870
C1220       C  0.80048142  0.45976029  0.77615330     0.36460
N1221       N  0.81827863  0.47840789  0.75515858    -0.90120
H1222       H  0.83824032  0.42819343  0.78396353     0.17570
H1223       H  0.72832680  0.45268860  0.80820969     0.17560
N1224       N  0.74809333  0.40262705  0.83714539    -0.89150
H1225       H  0.82757130  0.46389246  0.73800592     0.34940
H1226       H  0.83687095  0.48788928  0.76745674     0.40040
H1227       H  0.72885573  0.39495459  0.82458184     0.39660
H1228       H  0.74002153  0.41604881  0.85574028     0.34550
C1229       C  0.79418614  0.03955763  0.73192449    -0.27180
C1230       C  0.76348798  0.03443380  0.72239318    -0.15260
C1231       C  0.75165839  0.05222816  0.69773956     0.35370
C1232       C  0.76940165  0.07677565  0.68547455    -0.26630
C1233       C  0.79838031  0.08473567  0.69798422    -0.15870
C1234       C  0.81167151  0.06450659  0.72016874     0.36460
N1235       N  0.84235406  0.06916453  0.73195742    -0.90120
H1236       H  0.80367327  0.02580730  0.75060627     0.17570
H1237       H  0.75900696  0.09168109  0.66820540     0.17560
N1238       N  0.72085769  0.04671706  0.68654595    -0.89150
H1239       H  0.84299894  0.08942992  0.74525621     0.34940
H1240       H  0.85770316  0.07139151  0.71319880     0.40040
H1241       H  0.72077070  0.02496697  0.67583544     0.39660
H1242       H  0.71500841  0.06283540  0.66945007     0.34550
C1243       C  0.73995951  0.04429808  0.79204183    -0.27180
C1244       C  0.72407581  0.03357296  0.76590469    -0.15260
C1245       C  0.69381222  0.04491180  0.76013321     0.35370
C1246       C  0.68255175  0.07013391  0.77756369    -0.26630
C1247       C  0.70081963  0.08423614  0.80051294    -0.15870
C1248       C  0.72841662  0.06910620  0.80983624     0.36460
N1249       N  0.74591306  0.08049176  0.83576569    -0.90120
H1250       H  0.76265183  0.03483821  0.79716529     0.17570
H1251       H  0.66067254  0.08052925  0.77099084     0.17560
N1252       N  0.67430854  0.03226027  0.73635841    -0.89150
H1253       H  0.76587136  0.06712767  0.83906896     0.34940
H1254       H  0.73211885  0.07765185  0.85560426     0.40040
H1255       H  0.68543738  0.01438365  0.72436194     0.39660
H1256       H  0.66976655  0.04988052  0.72037331     0.34550
C1257       C  0.69666110  0.95426579  0.75751468    -0.27180
C1258       C  0.72559045  0.96547956  0.76693229    -0.15260
C1259       C  0.73790981  0.95456497  0.79506903     0.35370
C1260       C  0.72375306  0.92925408  0.81042877    -0.26630
C1261       C  0.69742822  0.91456969  0.79795075    -0.15870
C1262       C  0.68247828  0.92912673  0.77246561     0.36460
N1263       N  0.65383451  0.91791350  0.75985155    -0.90120
H1264       H  0.68590724  0.96333921  0.73692812     0.17570
H1265       H  0.73522702  0.91926164  0.83032633     0.17560
N1266       N  0.76546491  0.96827241  0.80743638    -0.89150
H1267       H  0.65780269  0.89770077  0.74700942     0.34940
H1268       H  0.63829158  0.91333881  0.77800855     0.40040
H1269       H  0.78210087  0.95078545  0.80980886     0.39660
H1270       H  0.76016166  0.97674981  0.82957846     0.34550
C1271       C  0.79519614  0.95696977  0.73676312    -0.27180
C1272       C  0.76667237  0.96615325  0.72440966    -0.15260
C1273       C  0.75778873  0.95442714  0.69519052     0.35370
C1274       C  0.77482466  0.92990904  0.68170549    -0.26630
C1275       C  0.80035050  0.91694652  0.69705476    -0.15870
C1276       C  0.81247507  0.93282755  0.72309667     0.36460
N1277       N  0.84094783  0.92270836  0.73702586    -0.90120
H1278       H  0.80309044  0.96731951  0.75818158     0.17570
H1279       H  0.76594045  0.91870711  0.66107386     0.17560
N1280       N  0.73073557  0.96622489  0.68000584    -0.89150
H1281       H  0.84631236  0.93646567  0.75626918     0.34940
H1282       H  0.85873447  0.92615710  0.72076656     0.40040
H1283       H  0.71130667  0.95828930  0.69215561     0.39660
H1284       H  0.72899950  0.95695149  0.65766370     0.34550
C1285       C  0.75623552  0.70178871  0.55466058    -0.27180
C1286       C  0.73812957  0.71965784  0.53451615    -0.15260
C1287       C  0.70563600  0.72019300  0.53946642     0.35370
C1288       C  0.69266819  0.70664697  0.56626791    -0.26630
C1289       C  0.71148933  0.69235085  0.58832520    -0.15870
C1290       C  0.74348746  0.68870655  0.58164124     0.36460
N1291       N  0.76387254  0.67469984  0.60366982    -0.90120
H1292       H  0.78114807  0.70065310  0.55118072     0.17570
H1293       H  0.66806837  0.70939650  0.57095410     0.17560
N1294       N  0.68569217  0.73601244  0.51858374    -0.89150
H1295       H  0.77544919  0.65633188  0.59272694     0.34940
H1296       H  0.78044333  0.69123758  0.61017214     0.40040
H1297       H  0.66940149  0.71999021  0.51037082     0.39660
H1298       H  0.67374560  0.75325444  0.53088765     0.34550
C1299       C  0.80383230  0.76145671  0.54203280    -0.27180
C1300       C  0.77267043  0.76696254  0.53432124    -0.15260
C1301       C  0.75635242  0.79066247  0.54982911     0.35370
C1302       C  0.77043194  0.80639678  0.57445909    -0.26630
C1303       C  0.79981702  0.79754524  0.58567202    -0.15870
C1304       C  0.81743237  0.77607700  0.56779331     0.36460
N1305       N  0.84834844  0.76728700  0.57597497    -0.90120
H1306       H  0.81667473  0.74345491  0.52999024     0.17570
H1307       H  0.75677709  0.82353477  0.58690769     0.17560
N1308       N  0.72452086  0.79684248  0.54224192    -0.89150
H1309       H  0.84775382  0.75519803  0.59693847     0.34940
H1310       H  0.86168518  0.78745266  0.57849798     0.40040
H1311       H  0.72441583  0.80729561  0.52044604     0.39660
H1312       H  0.71486064  0.81305285  0.55758685     0.34550
C1313       C  0.69215952  0.72357037  0.42679496    -0.27180
C1314       C  0.70510232  0.69714228  0.41264352    -0.15260
C1315       C  0.73121160  0.68322186  0.42659502     0.35370
C1316       C  0.74475476  0.69711451  0.45286880    -0.26630
C1317       C  0.73395031  0.72571784  0.46444562    -0.15870
C1318       C  0.70674838  0.73871020  0.45137544     0.36460
N1319       N  0.69454463  0.76847836  0.46051612    -0.90120
H1320       H  0.67211922  0.73471378  0.41661288     0.17570
H1321       H  0.76547397  0.68684649  0.46246960     0.17560
N1322       N  0.74572418  0.65661832  0.41276759    -0.89150
H1323       H  0.67116872  0.76549253  0.46653425     0.34940
H1324       H  0.70530659  0.77664985  0.48042145     0.40040
H1325       H  0.74649083  0.63898821  0.42938784     0.39660
H1326       H  0.76856862  0.66261066  0.40691009     0.34550
C1327       C  0.92887462  0.77325874  0.31222604    -0.27180
C1328       C  0.91484678  0.79928069  0.29849051    -0.15260
C1329       C  0.92990178  0.81292678  0.27247338     0.35370
C1330       C  0.95516303  0.79768711  0.25848091    -0.26630
C1331       C  0.96518941  0.76850830  0.26900134    -0.15870
C1332       C  0.95282315  0.75716215  0.29725096     0.36460
N1333       N  0.96141407  0.72764574  0.30962767    -0.90120
H1334       H  0.91846998  0.76275307  0.33264394     0.17570
H1335       H  0.96497678  0.80739799  0.23746898     0.17560
N1336       N  0.91891253  0.84081122  0.25819977    -0.89150
H1337       H  0.95257330  0.71052274  0.29503253     0.34940
H1338       H  0.98557592  0.72615177  0.31037337     0.40040
H1339       H  0.91702516  0.85811202  0.27515697     0.39660
H1340       H  0.89718495  0.83662057  0.24845197     0.34550
C1341       C  0.81776396  0.77135567  0.42822185    -0.27180
C1342       C  0.80422283  0.79872983  0.41687012    -0.15260
C1343       C  0.78034678  0.81293219  0.43470602     0.35370
C1344       C  0.76638356  0.79618409  0.45895448    -0.26630
C1345       C  0.77646188  0.76620383  0.46668201    -0.15870
C1346       C  0.80420330  0.75493351  0.45291994     0.36460
N1347       N  0.81844270  0.72631376  0.46234254    -0.90120
H1348       H  0.83696940  0.76071550  0.41580592     0.17570
H1349       H  0.74655183  0.80624204  0.47059775     0.17560
N1350       N  0.76832191  0.84323513  0.42750364    -0.89150
H1351       H  0.81639878  0.71045836  0.44407429     0.34940
H1352       H  0.80725395  0.71673798  0.48162011     0.40040
H1353       H  0.78299885  0.85464287  0.41184230     0.39660
H1354       H  0.76941232  0.85660191  0.44773638     0.34550
C1355       C  0.93431982  0.68546531  0.21124189    -0.27180
C1356       C  0.91448470  0.70417417  0.19353957    -0.15260
C1357       C  0.92346854  0.73511128  0.18729100     0.35370
C1358       C  0.94917849  0.74786781  0.20238183    -0.26630
C1359       C  0.96623360  0.73053780  0.22383675    -0.15870
C1360       C  0.96074703  0.69812387  0.22576686     0.36460
N1361       N  0.98186634  0.67808420  0.24185258    -0.90120
H1362       H  0.92817265  0.66135513  0.21521832     0.17570
H1363       H  0.95433119  0.77223970  0.19895867     0.17560
N1364       N  0.90480176  0.75475027  0.16820272    -0.89150
H1365       H  0.97431918  0.65499269  0.24089553     0.34940
H1366       H  0.98258901  0.68423314  0.26515715     0.40040
H1367       H  0.91884737  0.76344271  0.15034089     0.39660
H1368       H  0.89715318  0.77353253  0.18164706     0.34550
C1369       C  0.69453458  0.76493673  0.04434838    -0.27180
C1370       C  0.72485823  0.77268394  0.03498223    -0.15260
C1371       C  0.73924831  0.79884759  0.04824491     0.35370
C1372       C  0.72449812  0.81491292  0.07238561    -0.26630
C1373       C  0.69665037  0.80380850  0.08558404    -0.15870
C1374       C  0.68050524  0.77990769  0.06992185     0.36460
N1375       N  0.65109071  0.76908714  0.08124102    -0.90120
H1376       H  0.68267932  0.74558825  0.03358922     0.17570
H1377       H  0.73707442  0.83374777  0.08335642     0.17560
N1378       N  0.77010118  0.80759955  0.03918986    -0.89150
H1379       H  0.65324836  0.74552154  0.08672724     0.34940
H1380       H  0.63501868  0.77106887  0.06331289     0.40040
H1381       H  0.78434604  0.80572174  0.05862334     0.39660
H1382       H  0.76978959  0.83100611  0.03274214     0.34550
C1383       C  0.79416299  0.73723185  0.04160026    -0.27180
C1384       C  0.76353185  0.72854744  0.03484414    -0.15260
C1385       C  0.75037389  0.70263580  0.05033949     0.35370
C1386       C  0.76663232  0.68861542  0.07456137    -0.26630
C1387       C  0.79532449  0.70039164  0.08446228    -0.15870
C1388       C  0.81012806  0.72363447  0.06650654     0.36460
N1389       N  0.84036146  0.73482020  0.07499521    -0.90120
H1390       H  0.80469722  0.75635858  0.02904402     0.17570
H1391       H  0.75510319  0.67047410  0.08774186     0.17560
N1392       N  0.72007907  0.69072796  0.04313629    -0.89150
H1393       H  0.84776038  0.75228144  0.05979565     0.34940
H1394       H  0.85590621  0.71634525  0.07239818     0.40040
H1395       H  0.71079909  0.70149076  0.02366962     0.39660
H1396       H  0.70540597  0.69560440  0.06193540     0.34550
C1397       C  0.79414625  0.74981392  0.95393765    -0.27180
C1398       C  0.76902949  0.73368295  0.96708994    -0.15260
C1399       C  0.76367127  0.70273660  0.95812285     0.35370
C1400       C  0.78114818  0.68969792  0.93379214    -0.26630
C1401       C  0.80311202  0.70752924  0.91721133    -0.15870
C1402       C  0.81100484  0.73735651  0.92896172     0.36460
N1403       N  0.83382517  0.75684658  0.91445330    -0.90120
H1404       H  0.79895965  0.77340305  0.96128407     0.17570
H1405       H  0.77500985  0.66666173  0.92562981     0.17560
N1406       N  0.73900923  0.68523066  0.97203580    -0.89150
H1407       H  0.82636840  0.76266570  0.89223852     0.34940
H1408       H  0.85474597  0.74463457  0.91298744     0.40040
H1409       H  0.74854030  0.66505848  0.98150273     0.39660
H1410       H  0.72361758  0.67859853  0.95459234     0.34550
C1411       C  0.71393824  0.81473347  0.93321454    -0.27180
C1412       C  0.69223584  0.79761478  0.91593766    -0.15260
C1413       C  0.68322544  0.76792994  0.92688168     0.35370
C1414       C  0.69866896  0.75469489  0.95221253    -0.26630
C1415       C  0.72328119  0.77026788  0.96660886    -0.15870
C1416       C  0.72986623  0.80112468  0.95801215     0.36460
N1417       N  0.75424014  0.81799065  0.97282854    -0.90120
H1418       H  0.72106692  0.83760272  0.92537331     0.17570
H1419       H  0.69320304  0.73103029  0.95888358     0.17560
N1420       N  0.66074252  0.74975913  0.91053341    -0.89150
H1421       H  0.74471115  0.83847896  0.98181556     0.34940
H1422       H  0.77064135  0.82419613  0.95594561     0.40040
H1423       H  0.67147085  0.72928963  0.90294985     0.39660
H1424       H  0.64305001  0.74371303  0.92611877     0.34550
C1425       C  0.74791860  0.29956471  0.54884981    -0.27180
C1426       C  0.73379398  0.27376604  0.53488010    -0.15260
C1427       C  0.70345399  0.26536195  0.54410935     0.35370
C1428       C  0.68956774  0.28042174  0.56964906    -0.26630
C1429       C  0.70554766  0.30342319  0.58641244    -0.15870
C1430       C  0.73423282  0.31435133  0.57456561     0.36460
N1431       N  0.75111282  0.33827872  0.59030625    -0.90120
H1432       H  0.77103185  0.30651544  0.54155649     0.17570
H1433       H  0.66731717  0.27218211  0.57820807     0.17560
N1434       N  0.68775260  0.24013239  0.52906112    -0.89150
H1435       H  0.75554668  0.35617932  0.57451485     0.34940
H1436       H  0.77242339  0.32909339  0.59725025     0.40040
H1437       H  0.68140710  0.24807277  0.50718688     0.39660
H1438       H  0.66697082  0.23488652  0.54059981     0.34550
C1439       C  0.80260353  0.24380056  0.54720761    -0.27180
C1440       C  0.77467693  0.23181813  0.53557060    -0.15260
C1441       C  0.76353846  0.20334050  0.54713485     0.35370
C1442       C  0.77848303  0.18903251  0.57212535    -0.26630
C1443       C  0.80403316  0.20313754  0.58673917    -0.15870
C1444       C  0.81756483  0.22968307  0.57260080     0.36460
N1445       N  0.84485594  0.24373477  0.58552634    -0.90120
H1446       H  0.81148478  0.26548819  0.53799233     0.17570
H1447       H  0.76804418  0.16833637  0.58203990     0.17560
N1448       N  0.73563333  0.19000818  0.53508874    -0.89150
H1449       H  0.85119999  0.26356622  0.57299344     0.34940
H1450       H  0.86304699  0.22786759  0.58287065     0.40040
H1451       H  0.74075505  0.16756022  0.52729178     0.39660
H1452       H  0.71958323  0.18809273  0.55329621     0.34550
C1453       C  0.79268089  0.95588281  0.26492700    -0.27180
C1454       C  0.76748852  0.96731577  0.28213790    -0.15260
C1455       C  0.76280442  0.95594662  0.31263437     0.35370
C1456       C  0.77895703  0.92933098  0.32227566    -0.26630
C1457       C  0.80046604  0.91442417  0.30262536    -0.15870
C1458       C  0.80923603  0.92979723  0.27465809     0.36460
N1459       N  0.83329853  0.91857295  0.25442055    -0.90120
H1460       H  0.79771368  0.96548493  0.24222834     0.17570
H1461       H  0.77281944  0.91902209  0.34439464     0.17560
N1462       N  0.74111690  0.96981935  0.33390204    -0.89150
H1463       H  0.82575410  0.89858091  0.24294663     0.34940
H1464       H  0.85305056  0.91374103  0.26749443     0.40040
H1465       H  0.73260604  0.99047956  0.32484334     0.39660
H1466       H  0.75348353  0.97633783  0.35364915     0.34550
C1467       C  0.68377257  0.92674191  0.23428264    -0.27180
C1468       C  0.69874858  0.91618448  0.20715070    -0.15260
C1469       C  0.72405023  0.93388298  0.19555471     0.35370
C1470       C  0.73569947  0.95883989  0.21315980    -0.26630
C1471       C  0.72392727  0.96546283  0.24300389    -0.15870
C1472       C  0.69698512  0.94946022  0.25324023     0.36460
N1473       N  0.68331928  0.95382639  0.28340402    -0.90120
H1474       H  0.66373203  0.91428441  0.24325832     0.17570
H1475       H  0.75599232  0.97120528  0.20473174     0.17560
N1476       N  0.73980182  0.92592171  0.16731008    -0.89150
H1477       H  0.68561940  0.93295583  0.29557176     0.34940
H1478       H  0.69513222  0.97042721  0.29612747     0.40040
H1479       H  0.72346314  0.92494318  0.14952968     0.39660
H1480       H  0.75007501  0.90410214  0.16980971     0.34550
C1481       C  0.68276351  0.06926548  0.22617426    -0.27180
C1482       C  0.70198118  0.08282293  0.20350439    -0.15260
C1483       C  0.73012726  0.06771977  0.19554454     0.35370
C1484       C  0.74093390  0.04344305  0.21431027    -0.26630
C1485       C  0.72406311  0.03356978  0.24042985    -0.15870
C1486       C  0.69352069  0.04506899  0.24499260     0.36460
N1487       N  0.67315749  0.03379364  0.26893646    -0.90120
H1488       H  0.66049633  0.07965876  0.23171589     0.17570
H1489       H  0.76380241  0.03382153  0.20998654     0.17560
N1490       N  0.74881841  0.07864960  0.17002766    -0.89150
H1491       H  0.66752383  0.05242082  0.28349490     0.34940
H1492       H  0.68425755  0.01741419  0.28253681     0.40040
H1493       H  0.73606638  0.07522286  0.14977713     0.39660
H1494       H  0.76903465  0.06539324  0.16772675     0.34550
C1495       C  0.69166688  0.26697072  0.42560107    -0.27180
C1496       C  0.69860574  0.29780296  0.41746335    -0.15260
C1497       C  0.71872474  0.31517666  0.43686271     0.35370
C1498       C  0.73428597  0.30019103  0.46119277    -0.26630
C1499       C  0.73042003  0.26822078  0.46638501    -0.15870
C1500       C  0.70795007  0.25189983  0.44920990     0.36460
N1501       N  0.70289998  0.21940593  0.45444607    -0.90120
H1502       H  0.67642739  0.25318994  0.41113439     0.17570
H1503       H  0.75113473  0.31308571  0.47462941     0.17560
N1504       N  0.72487383  0.34759695  0.43167189    -0.89150
H1505       H  0.67937813  0.21606587  0.45960211     0.34940
H1506       H  0.70783051  0.20755248  0.43380807     0.40040
H1507       H  0.71026080  0.35668499  0.41473842     0.39660
H1508       H  0.74773058  0.34966439  0.42359401     0.34550
C1509       C  0.93748878  0.21276337  0.31753434    -0.27180
C1510       C  0.91895952  0.19316124  0.29922344    -0.15260
C1511       C  0.92814800  0.18709540  0.26829998     0.35370
C1512       C  0.95157119  0.20536066  0.25479686    -0.26630
C1513       C  0.96695950  0.22826793  0.27197989    -0.15870
C1514       C  0.96160464  0.23027316  0.30413171     0.36460
N1515       N  0.97902366  0.25148422  0.32280044    -0.90120
H1516       H  0.93103475  0.21712043  0.34148385     0.17570
H1517       H  0.95628236  0.20329012  0.23017112     0.17560
N1518       N  0.91127145  0.16517703  0.24967341    -0.89150
H1519       H  0.99016556  0.23858672  0.33995420     0.34940
H1520       H  0.96348323  0.26651045  0.33394026     0.40040
H1521       H  0.91485664  0.14313639  0.25916164     0.39660
H1522       H  0.92023704  0.16446213  0.22709164     0.34550
C1523       C  0.81628149  0.23423831  0.42616871    -0.27180
C1524       C  0.80803737  0.20401922  0.41688720    -0.15260
C1525       C  0.78758136  0.18661174  0.43606331     0.35370
C1526       C  0.77236620  0.20131843  0.46094494    -0.26630
C1527       C  0.77714030  0.23296024  0.46710142    -0.15870
C1528       C  0.80072356  0.24901030  0.45088354     0.36460
N1529       N  0.80689684  0.28108366  0.45794736    -0.90120
H1530       H  0.83206217  0.24774501  0.41185334     0.17570
H1531       H  0.75487214  0.18858955  0.47384217     0.17560
N1532       N  0.78053000  0.15453786  0.42994079    -0.89150
H1533       H  0.82439941  0.28984212  0.44347006     0.34940
H1534       H  0.81542018  0.28205965  0.48055157     0.40040
H1535       H  0.79499182  0.14548969  0.41261259     0.39660
H1536       H  0.75766868  0.15334529  0.42203238     0.34550
C1537       C  0.76877051  0.07792629  0.32118702    -0.27180
C1538       C  0.79773315  0.08586584  0.30831149    -0.15260
C1539       C  0.81115904  0.06559694  0.28596365     0.35370
C1540       C  0.79341976  0.04095824  0.27394706    -0.26630
C1541       C  0.76273122  0.03585031  0.28396343    -0.15870
C1542       C  0.75093314  0.05378191  0.30870437     0.36460
N1543       N  0.71998158  0.04906200  0.31996849    -0.90120
H1544       H  0.75807261  0.09282078  0.33850163     0.17570
H1545       H  0.80296647  0.02699180  0.25526183     0.17560
N1546       N  0.84215400  0.06995822  0.27421982    -0.89150
H1547       H  0.72114466  0.04421118  0.34367176     0.34940
H1548       H  0.70786661  0.06994004  0.31744879     0.40040
H1549       H  0.85429350  0.08633420  0.28731891     0.39660
H1550       H  0.84053994  0.07827025  0.25152672     0.34550
C1551       C  0.92385427  0.31266380  0.23612760    -0.27180
C1552       C  0.91675215  0.30509918  0.20531487    -0.15260
C1553       C  0.93713655  0.28513291  0.18871778     0.35370
C1554       C  0.96132137  0.27008697  0.20447120    -0.26630
C1555       C  0.96563635  0.27468300  0.23637089    -0.15870
C1556       C  0.94757881  0.29717901  0.25186384     0.36460
N1557       N  0.95193954  0.30295174  0.28421382    -0.90120
H1558       H  0.90858865  0.32780405  0.24932933     0.17570
H1559       H  0.97540362  0.25313234  0.19222795     0.17560
N1560       N  0.93317469  0.27874640  0.15628921    -0.89150
H1561       H  0.95682344  0.32658437  0.28710033     0.34940
H1562       H  0.93102543  0.29813268  0.29572895     0.40040
H1563       H  0.91601994  0.29287802  0.14675685     0.39660
H1564       H  0.92587961  0.25566074  0.15410252     0.34550
C1565       C  0.74448257  0.19712653  0.04798078    -0.27180
C1566       C  0.73225314  0.22493323  0.03636377    -0.15260
C1567       C  0.70266703  0.23468039  0.04661186     0.35370
C1568       C  0.68827263  0.21919360  0.07152207    -0.26630
C1569       C  0.70324560  0.19471374  0.08690908    -0.15870
C1570       C  0.73029515  0.18180931  0.07322102     0.36460
N1571       N  0.74482010  0.15498659  0.08659127    -0.90120
H1572       H  0.76634182  0.18859230  0.03883995     0.17570
H1573       H  0.66691454  0.22855753  0.08110843     0.17560
N1574       N  0.68814793  0.26137932  0.03309568    -0.89150
H1575       H  0.76502800  0.14915808  0.07433833     0.34940
H1576       H  0.72951189  0.13628772  0.08402704     0.40040
H1577       H  0.70046597  0.28087440  0.04036194     0.39660
H1578       H  0.66558733  0.26409328  0.04178337     0.34550
C1579       C  0.80014335  0.24939809  0.05030194    -0.27180
C1580       C  0.77567226  0.26494110  0.03570871    -0.15260
C1581       C  0.77055248  0.29647015  0.04320224     0.35370
C1582       C  0.78637382  0.31005755  0.06815830    -0.26630
C1583       C  0.80700116  0.29267489  0.08624757    -0.15870
C1584       C  0.81561533  0.26263824  0.07556311     0.36460
N1585       N  0.83782507  0.24376758  0.09132031    -0.90120
H1586       H  0.80556910  0.22570153  0.04378541     0.17570
H1587       H  0.78014771  0.33343060  0.07526313     0.17560
N1588       N  0.74834397  0.31454224  0.02672262    -0.89150
H1589       H  0.82931299  0.23842525  0.11339315     0.34940
H1590       H  0.85859059  0.25622134  0.09317398     0.40040
H1591       H  0.76009212  0.33330003  0.01663022     0.39660
H1592       H  0.73243832  0.32367559  0.04272288     0.34550
C1593       C  0.70133585  0.23250932  0.96068896    -0.27180
C1594       C  0.73184482  0.22427464  0.96830445    -0.15260
C1595       C  0.74532881  0.19828102  0.95366962     0.35370
C1596       C  0.73008423  0.18385129  0.92880619    -0.26630
C1597       C  0.70174057  0.19551328  0.91784252    -0.15870
C1598       C  0.68609699  0.21837692  0.93557782     0.36460
N1599       N  0.65582241  0.22884306  0.92649745    -0.90120
H1600       H  0.69014425  0.25153172  0.97264323     0.17570
H1601       H  0.74224453  0.16589719  0.91594236     0.17560
N1602       N  0.77543664  0.18774429  0.96271313    -0.89150
H1603       H  0.64773720  0.24612818  0.94157928     0.34940
H1604       H  0.64061643  0.20999962  0.92872809     0.40040
H1605       H  0.79013258  0.18883936  0.94333795     0.39660
H1606       H  0.77348975  0.16444594  0.96931239     0.34550
C1607       C  0.80111727  0.25869526  0.95842919    -0.27180
C1608       C  0.77109888  0.26799256  0.96744583    -0.15260
C1609       C  0.75795619  0.29454720  0.95344417     0.35370
C1610       C  0.77387736  0.30929358  0.92932096    -0.26630
C1611       C  0.80136544  0.29681324  0.91666342    -0.15870
C1612       C  0.81627600  0.27252478  0.93278135     0.36460
N1613       N  0.84535888  0.26035595  0.92171259    -0.90120
H1614       H  0.81159237  0.23889228  0.96972504     0.17570
H1615       H  0.76253904  0.32867178  0.91806104     0.17560
N1616       N  0.72776303  0.30628300  0.96167043    -0.89150
H1617       H  0.85270059  0.24198937  0.93569660     0.34940
H1618       H  0.86192584  0.27799311  0.92393648     0.40040
H1619       H  0.71824259  0.29460655  0.98060027     0.39660
H1620       H  0.71305816  0.30244128  0.94286187     0.34550
C1621       C  0.70636413  0.45697448  0.26612899    -0.27180
C1622       C  0.73685499  0.46410436  0.27494023    -0.15260
C1623       C  0.74936470  0.44910030  0.30098944     0.35370
C1624       C  0.73276236  0.42506152  0.31558769    -0.26630
C1625       C  0.70402329  0.41491812  0.30410322    -0.15870
C1626       C  0.68952472  0.43299128  0.28077820     0.36460
N1627       N  0.65851601  0.42662251  0.27036106    -0.90120
H1628       H  0.69615253  0.46901410  0.24666505     0.17570
H1629       H  0.74418176  0.41204468  0.33371161     0.17560
N1630       N  0.77980230  0.45680154  0.31160011    -0.89150
H1631       H  0.64573501  0.44713033  0.27287456     0.34940
H1632       H  0.64754455  0.41066063  0.28501745     0.40040
H1633       H  0.79333923  0.43666486  0.31061955     0.39660
H1634       H  0.77803231  0.46351132  0.33484573     0.34550
C1635       C  0.75816505  0.45268580  0.20529220    -0.27180
C1636       C  0.77492115  0.46558679  0.22997297    -0.15260
C1637       C  0.80627182  0.45665752  0.23395655     0.35370
C1638       C  0.81851308  0.43256748  0.21569920    -0.26630
C1639       C  0.79980131  0.41580399  0.19496415    -0.15870
C1640       C  0.77000979  0.42773267  0.18801620     0.36460
N1641       N  0.74999089  0.41331266  0.16585700    -0.90120
H1642       H  0.73443873  0.45999111  0.20141377     0.17570
H1643       H  0.84169586  0.42427130  0.22072227     0.17560
N1644       N  0.82584758  0.47000721  0.25727231    -0.89150
H1645       H  0.74423090  0.39102635  0.17352396     0.34940
H1646       H  0.76183497  0.41178181  0.14467212     0.40040
H1647       H  0.81366842  0.48595579  0.27075882     0.39660
H1648       H  0.83263708  0.45220114  0.27221150     0.34550
C1649       C  0.76452483  0.54161976  0.20322373    -0.27180
C1650       C  0.77564931  0.53422902  0.23281364    -0.15260
C1651       C  0.80182306  0.55029815  0.24406349     0.35370
C1652       C  0.81514800  0.57444032  0.22664935    -0.26630
C1653       C  0.80151997  0.58463545  0.19904258    -0.15870
C1654       C  0.77693020  0.56690811  0.18634701     0.36460
N1655       N  0.76324607  0.57599862  0.15746558    -0.90120
H1656       H  0.74448175  0.52927601  0.19442781     0.17570
H1657       H  0.83386931  0.58770641  0.23691063     0.17560
N1658       N  0.81359578  0.54398872  0.27431397    -0.89150
H1659       H  0.74509994  0.56096621  0.15161649     0.34940
H1660       H  0.78024872  0.57359061  0.14021532     0.40040
H1661       H  0.83705411  0.53814005  0.27200052     0.39660
H1662       H  0.81235085  0.56452217  0.28726638     0.34550
C1663       C  0.70634949  0.54384603  0.25715275    -0.27180
C1664       C  0.73236618  0.53211929  0.27253650    -0.15260
C1665       C  0.73813121  0.54178652  0.30307446     0.35370
C1666       C  0.72084775  0.56640688  0.31582441    -0.26630
C1667       C  0.69819113  0.58190858  0.29826511    -0.15870
C1668       C  0.68920635  0.56858615  0.26957967     0.36460
N1669       N  0.66488498  0.58131093  0.25107234    -0.90120
H1670       H  0.70104568  0.53565609  0.23401536     0.17570
H1671       H  0.72751977  0.57558338  0.33823277     0.17560
N1672       N  0.76261156  0.52797253  0.32052903    -0.89150
H1673       H  0.67126487  0.60355406  0.24377459     0.34940
H1674       H  0.64467378  0.58257430  0.26458013     0.40040
H1675       H  0.75275679  0.51836162  0.34055728     0.39660
H1676       H  0.77774982  0.54560628  0.32752785     0.34550
C1677       C  0.30196476  0.54672684  0.74498402    -0.27180
C1678       C  0.27499024  0.53332461  0.73275359    -0.15260
C1679       C  0.26459363  0.54333300  0.70359118     0.35370
C1680       C  0.27920227  0.56839979  0.68877792    -0.26630
C1681       C  0.30306844  0.58506710  0.70333508    -0.15870
C1682       C  0.31592650  0.57283196  0.73092390     0.36460
N1683       N  0.34064653  0.58874266  0.74658536    -0.90120
H1684       H  0.31049062  0.53878917  0.76710181     0.17570
H1685       H  0.26939133  0.57698709  0.66736912     0.17560
N1686       N  0.23751929  0.52994542  0.69004843    -0.89150
H1687       H  0.34979052  0.57469226  0.76403215     0.34940
H1688       H  0.33086092  0.60789655  0.75792554     0.40040
H1689       H  0.24363522  0.52182171  0.66797164     0.39660
H1690       H  0.22101646  0.54750891  0.68732767     0.34550
C1691       C  0.20492519  0.54397885  0.76184094    -0.27180
C1692       C  0.23329160  0.53429016  0.77412531    -0.15260
C1693       C  0.24379525  0.54811309  0.80197735     0.35370
C1694       C  0.22800898  0.57400337  0.81417343    -0.26630
C1695       C  0.20212746  0.58673985  0.79912237    -0.15870
C1696       C  0.18937581  0.57000112  0.77369983     0.36460
N1697       N  0.16165330  0.57957968  0.75822733    -0.90120
H1698       H  0.19617327  0.53296230  0.74104645     0.17570
H1699       H  0.23789500  0.58584003  0.83398711     0.17560
N1700       N  0.27124299  0.53773380  0.81754730    -0.89150
H1701       H  0.16605586  0.59965715  0.74535551     0.34940
H1702       H  0.14437477  0.58391739  0.77481574     0.40040
H1703       H  0.28062275  0.51823831  0.80665048     0.39660
H1704       H  0.26453994  0.53047589  0.83973223     0.34550
C1705       C  0.93363623  0.27749245  0.81562622    -0.27180
C1706       C  0.91806040  0.30214052  0.80103763    -0.15260
C1707       C  0.93087695  0.31442283  0.77341431     0.35370
C1708       C  0.95616196  0.29944857  0.75908653    -0.26630
C1709       C  0.96861433  0.27206192  0.77143067    -0.15870
C1710       C  0.95864517  0.26220901  0.80102058     0.36460
N1711       N  0.97259471  0.23559160  0.81525559    -0.90120
H1712       H  0.92443012  0.26823229  0.83716617     0.17570
H1713       H  0.96445453  0.30799848  0.73697426     0.17560
N1714       N  0.91656786  0.34019153  0.75817445    -0.89150
H1715       H  0.96112507  0.23004518  0.83596739     0.34940
H1716       H  0.99505930  0.24206430  0.82142454     0.40040
H1717       H  0.93329928  0.35760147  0.75530178     0.39660
H1718       H  0.90954941  0.33287559  0.73617498     0.34550
C1719       C  0.95414770  0.20373427  0.74603887    -0.27180
C1720       C  0.96821527  0.22912122  0.73116202    -0.15260
C1721       C  0.96049809  0.23547643  0.70008843     0.35370
C1722       C  0.93577166  0.21921264  0.68627006    -0.26630
C1723       C  0.91861135  0.19686574  0.70293301    -0.15870
C1724       C  0.92953900  0.18738036  0.73227577     0.36460
N1725       N  0.91372272  0.16338354  0.74937891    -0.90120
H1726       H  0.96103624  0.19788466  0.76937154     0.17570
H1727       H  0.92794856  0.22614161  0.66348498     0.17560
N1728       N  0.97671583  0.25921110  0.68309291    -0.89150
H1729       H  0.92382168  0.16025744  0.77111834     0.34940
H1730       H  0.91685295  0.14255961  0.73723511     0.40040
H1731       H  0.97101749  0.28062589  0.69292328     0.39660
H1732       H  0.96905307  0.25997463  0.66016497     0.34550
C1733       C  0.04026717  0.20178191  0.72894099    -0.27180
C1734       C  0.03670074  0.23404186  0.72579890    -0.15260
C1735       C  0.05533931  0.25012504  0.70407440     0.35370
C1736       C  0.07905298  0.23422143  0.68818034    -0.26630
C1737       C  0.08576274  0.20303879  0.69494144    -0.15870
C1738       C  0.06480476  0.18612665  0.71402372     0.36460
N1739       N  0.06872173  0.15352247  0.71997064    -0.90120
H1740       H  0.02566017  0.18917997  0.74518262     0.17570
H1741       H  0.09491675  0.24740935  0.67365546     0.17560
N1742       N  0.05198242  0.28315672  0.70033902    -0.89150
H1743       H  0.07540764  0.15105222  0.74308858     0.34940
H1744       H  0.08629622  0.14409989  0.70605297     0.40040
H1745       H  0.03010962  0.28735940  0.69100858     0.39660
H1746       H  0.06820037  0.29172144  0.68433605     0.34550
C1747       C  0.27294342  0.42492904  0.69035597    -0.27180
C1748       C  0.30166845  0.41401150  0.70143017    -0.15260
C1749       C  0.31682473  0.43190626  0.72448051     0.35370
C1750       C  0.30149940  0.45762570  0.73785275    -0.26630
C1751       C  0.27054030  0.46457997  0.73031654    -0.15870
C1752       C  0.25637422  0.44826425  0.70586084     0.36460
N1753       N  0.22411909  0.45297584  0.69891945    -0.90120
H1754       H  0.26122620  0.41246449  0.67198492     0.17570
H1755       H  0.31262342  0.47015298  0.75655219     0.17560
N1756       N  0.34668749  0.42361934  0.73620067    -0.89150
H1757       H  0.21654709  0.43735035  0.68198323     0.34940
H1758       H  0.22158996  0.47505266  0.68952802     0.40040
H1759       H  0.36212607  0.42157677  0.71749451     0.39660
H1760       H  0.34497395  0.40225309  0.74754936     0.34550
C1761       C  0.18787430  0.27788715  0.93139956    -0.27180
C1762       C  0.20358064  0.30225882  0.91614219    -0.15260
C1763       C  0.23109397  0.31399436  0.92978173     0.35370
C1764       C  0.24391535  0.29875205  0.95537397    -0.26630
C1765       C  0.23063691  0.27140854  0.96730885    -0.15870
C1766       C  0.20125609  0.26189524  0.95620613     0.36460
N1767       N  0.18534965  0.23481090  0.96768152    -0.90120
H1768       H  0.16642444  0.26887295  0.92190653     0.17570
H1769       H  0.26598587  0.30682237  0.96404262     0.17560
N1770       N  0.24810541  0.33955317  0.91683616    -0.89150
H1771       H  0.16417823  0.24215676  0.97714620     0.34940
H1772       H  0.19745090  0.22426867  0.98561162     0.40040
H1773       H  0.23316100  0.35855367  0.91481438     0.39660
H1774       H  0.25655474  0.33326741  0.89495945     0.34550
C1775       C  0.19989051  0.45914735  0.76528606    -0.27180
C1776       C  0.23064691  0.46607757  0.77353819    -0.15260
C1777       C  0.24336276  0.45152009  0.79957491     0.35370
C1778       C  0.22668828  0.42809767  0.81474011    -0.26630
C1779       C  0.19858038  0.41659856  0.80259535    -0.15870
C1780       C  0.18343222  0.43469845  0.77975104     0.36460
N1781       N  0.15250514  0.42788749  0.76941832    -0.90120
H1782       H  0.18928046  0.47143739  0.74621916     0.17570
H1783       H  0.23815551  0.41599250  0.83345689     0.17560
N1784       N  0.27437349  0.45851048  0.80910521    -0.89150
H1785       H  0.13989223  0.44862366  0.77038797     0.34940
H1786       H  0.14120979  0.41352156  0.78538512     0.40040
H1787       H  0.27358664  0.46531917  0.83237438     0.39660
H1788       H  0.28750129  0.43812693  0.80758156     0.34550
C1789       C  0.07726624  0.26717242  0.81188809    -0.27180
C1790       C  0.08517355  0.29825078  0.80584400    -0.15260
C1791       C  0.06556474  0.31602023  0.78639669     0.35370
C1792       C  0.04152721  0.30110274  0.77018323    -0.26630
C1793       C  0.03686984  0.26894085  0.77288867    -0.15870
C1794       C  0.05403808  0.25221245  0.79492136     0.36460
N1795       N  0.04948382  0.21941308  0.79852438    -0.90120
H1796       H  0.09186969  0.25313172  0.82666893     0.17570
H1797       H  0.02802640  0.31423648  0.75365734     0.17560
N1798       N  0.07072058  0.34861069  0.78106087    -0.89150
H1799       H  0.07039438  0.20827742  0.79307875     0.34940
H1800       H  0.04443367  0.21497634  0.82184274     0.40040
H1801       H  0.08788413  0.35717145  0.79579114     0.39660
H1802       H  0.05037428  0.36027429  0.78745421     0.34550
C1803       C  0.31359668  0.22078216  0.93223496    -0.27180
C1804       C  0.29761619  0.19645871  0.91738727    -0.15260
C1805       C  0.27017530  0.18488423  0.93161019     0.35370
C1806       C  0.25738722  0.20058798  0.95715439    -0.26630
C1807       C  0.27056170  0.22833381  0.96812797    -0.15870
C1808       C  0.30005548  0.23748618  0.95668211     0.36460
N1809       N  0.31614093  0.26455518  0.96781057    -0.90120
H1810       H  0.33518358  0.22940791  0.92239518     0.17570
H1811       H  0.23542492  0.19258343  0.96647976     0.17560
N1812       N  0.25318092  0.15912015  0.91921964    -0.89150
H1813       H  0.31747081  0.28052288  0.94959589     0.34940
H1814       H  0.30403184  0.27541189  0.98576305     0.40040
H1815       H  0.26817585  0.14013464  0.91713260     0.39660
H1816       H  0.24472343  0.16507510  0.89739878     0.34550
C1817       C  0.18682280  0.07376211  0.73729436    -0.27180
C1818       C  0.19437279  0.08235111  0.70673729    -0.15260
C1819       C  0.21518322  0.06331180  0.68956354     0.35370
C1820       C  0.23202561  0.04014603  0.70492416    -0.26630
C1821       C  0.22764156  0.03476833  0.73668486    -0.15870
C1822       C  0.20355333  0.05036446  0.75243476     0.36460
N1823       N  0.19746484  0.04391007  0.78446301    -0.90120
H1824       H  0.17073470  0.08773681  0.75079465     0.17570
H1825       H  0.24993525  0.02771346  0.69235168     0.17560
N1826       N  0.22142489  0.06847822  0.65718317    -0.89150
H1827       H  0.20056228  0.06447539  0.79703447     0.34940
H1828       H  0.17421065  0.03721906  0.78666464     0.40040
H1829       H  0.20595201  0.08473648  0.64814785     0.39660
H1830       H  0.21660512  0.04771548  0.64552147     0.34550
C1831       C  0.27033069  0.04025500  0.80342165    -0.27180
C1832       C  0.27449061  0.03452272  0.77168030    -0.15260
C1833       C  0.29822234  0.05027144  0.75539286     0.35370
C1834       C  0.31465904  0.07425207  0.77016897    -0.26630
C1835       C  0.30696921  0.08343194  0.80052807    -0.15870
C1836       C  0.28644961  0.06445394  0.81812067     0.36460
N1837       N  0.28016190  0.07028701  0.85036535    -0.90120
H1838       H  0.25282641  0.02743970  0.81629457     0.17570
H1839       H  0.33054503  0.08834160  0.75654962     0.17560
N1840       N  0.30375715  0.04354518  0.72317659    -0.89150
H1841       H  0.25750536  0.07881024  0.85227555     0.34940
H1842       H  0.29517284  0.08715390  0.85922129     0.40040
H1843       H  0.31176199  0.02068414  0.72159554     0.39660
H1844       H  0.32143124  0.05771597  0.71428717     0.34550
C1845       C  0.22458163  0.93295904  0.68965216    -0.27180
C1846       C  0.19882740  0.91797196  0.70325433    -0.15260
C1847       C  0.18496033  0.93178707  0.72988919     0.35370
C1848       C  0.19996868  0.95657062  0.74469103    -0.26630
C1849       C  0.22905080  0.96700684  0.73430767    -0.15870
C1850       C  0.24033886  0.95676870  0.70530139     0.36460
N1851       N  0.26871087  0.96917765  0.69266054    -0.90120
H1852       H  0.23475491  0.92360420  0.66856611     0.17570
H1853       H  0.19005543  0.96595440  0.76583585     0.17560
N1854       N  0.15713324  0.91994441  0.74391868    -0.89150
H1855       H  0.27218147  0.96124546  0.66997633     0.34940
H1856       H  0.28697014  0.96014832  0.70554372     0.40040
H1857       H  0.13994053  0.91850095  0.72699424     0.39660
H1858       H  0.16144311  0.89789762  0.75298168     0.34550
C1859       C  0.27159982  0.92617864  0.81648621    -0.27180
C1860       C  0.30030138  0.91588333  0.80468522    -0.15260
C1861       C  0.31598976  0.93476627  0.78261177     0.35370
C1862       C  0.30009845  0.95960002  0.76878030    -0.26630
C1863       C  0.26923756  0.96629130  0.77691254    -0.15870
C1864       C  0.25594044  0.95107563  0.80264671     0.36460
N1865       N  0.22582583  0.95982186  0.81382775    -0.90120
H1866       H  0.25952628  0.91277479  0.83409774     0.17570
H1867       H  0.31142501  0.97256031  0.75045381     0.17560
N1868       N  0.34722035  0.92833268  0.77250953    -0.89150
H1869       H  0.21141397  0.94025778  0.81288032     0.34940
H1870       H  0.22793200  0.96629944  0.83708641     0.40040
H1871       H  0.35728946  0.91135297  0.78647127     0.39660
H1872       H  0.36035538  0.94841374  0.77637435     0.34550
C1873       C  0.27739134  0.31428764  0.43313059    -0.27180
C1874       C  0.30046261  0.29765747  0.41689203    -0.15260
C1875       C  0.31088633  0.26917999  0.42974804     0.35370
C1876       C  0.29511538  0.25626303  0.45514826    -0.26630
C1877       C  0.26877925  0.27060249  0.46799110    -0.15870
C1878       C  0.26127038  0.30111308  0.45831767     0.36460
N1879       N  0.23698279  0.31903596  0.47263003    -0.90120
H1880       H  0.26976964  0.33661636  0.42443074     0.17570
H1881       H  0.30179885  0.23335822  0.46308830     0.17560
N1882       N  0.33551126  0.25132405  0.41616425    -0.89150
H1883       H  0.22029604  0.32378120  0.45583539     0.34940
H1884       H  0.22597646  0.30652687  0.49017755     0.40040
H1885       H  0.35522752  0.26540422  0.41418874     0.39660
H1886       H  0.32874767  0.24360874  0.39427873     0.34550
C1887       C  0.23998926  0.20050935  0.45700692    -0.27180
C1888       C  0.22740827  0.22889376  0.46716714    -0.15260
C1889       C  0.19944721  0.23925297  0.45413375     0.35370
C1890       C  0.18575547  0.22237818  0.43010658    -0.26630
C1891       C  0.20101703  0.19695874  0.41623780    -0.15870
C1892       C  0.22758880  0.18479756  0.43127736     0.36460
N1893       N  0.24395488  0.15818765  0.41975730    -0.90120
H1894       H  0.26135983  0.19214815  0.46710535     0.17570
H1895       H  0.16501068  0.23185340  0.41965439     0.17560
N1896       N  0.18618725  0.26840695  0.46314810    -0.89150
H1897       H  0.25336337  0.16338243  0.39798880     0.34940
H1898       H  0.22825497  0.13975138  0.41770912     0.40040
H1899       H  0.16314926  0.26449581  0.46986091     0.39660
H1900       H  0.18564335  0.28260735  0.44351452     0.34550
C1901       C  0.24857014  0.20237606  0.55029231    -0.27180
C1902       C  0.23035632  0.22484293  0.53551358    -0.15260
C1903       C  0.19865722  0.22694907  0.54340020     0.35370
C1904       C  0.18687498  0.20977427  0.56852967    -0.26630
C1905       C  0.20637235  0.19097466  0.58651838    -0.15870
C1906       C  0.23706740  0.18552815  0.57568134     0.36460
N1907       N  0.25814711  0.16553290  0.59161467    -0.90120
H1908       H  0.27285630  0.20003505  0.54396316     0.17570
H1909       H  0.16316438  0.21386643  0.57607780     0.17560
N1910       N  0.17873107  0.24797133  0.52746000    -0.89150
H1911       H  0.24796583  0.14355131  0.59367698     0.34940
H1912       H  0.26230813  0.17459185  0.61365141     0.40040
H1913       H  0.16903715  0.26327082  0.54368205     0.39660
H1914       H  0.16053556  0.23493059  0.51813372     0.34550
C1915       C  0.29709910  0.26612669  0.54113003    -0.27180
C1916       C  0.26543296  0.27188297  0.53634765    -0.15260
C1917       C  0.25065337  0.29524415  0.55392250     0.35370
C1918       C  0.26685772  0.31066508  0.57741407    -0.26630
C1919       C  0.29719806  0.30190037  0.58514009    -0.15870
C1920       C  0.31320071  0.28089807  0.56529714     0.36460
N1921       N  0.34527557  0.27313228  0.56980943    -0.90120
H1922       H  0.30880126  0.24848446  0.52743654     0.17570
H1923       H  0.25411267  0.32665063  0.59219348     0.17560
N1924       N  0.21842304  0.30181778  0.54963812    -0.89150
H1925       H  0.34622560  0.25025773  0.57789999     0.34940
H1926       H  0.35542932  0.28748731  0.58646543     0.40040
H1927       H  0.21623680  0.32546967  0.54457787     0.39660
H1928       H  0.20687586  0.29765489  0.57064049     0.34550
C1929       C  0.45317616  0.24610244  0.79834550    -0.27180
C1930       C  0.46734133  0.22965395  0.77394562    -0.15260
C1931       C  0.45845355  0.19825966  0.76933006     0.35370
C1932       C  0.43278954  0.18618044  0.78533390    -0.26630
C1933       C  0.41540869  0.20452596  0.80604111    -0.15870
C1934       C  0.42721118  0.23421758  0.81412736     0.36460
N1935       N  0.41193172  0.25411029  0.83606194    -0.90120
H1936       H  0.46066620  0.26946396  0.80361191     0.17570
H1937       H  0.42488083  0.16293971  0.77961047     0.17560
N1938       N  0.47462979  0.17786937  0.74868290    -0.89150
H1939       H  0.40954576  0.24217911  0.85703659     0.34940
H1940       H  0.39002658  0.25991232  0.82766211     0.40040
H1941       H  0.49688003  0.17465048  0.75736260     0.39660
H1942       H  0.47589814  0.18762395  0.72667006     0.34550
C1943       C  0.45125027  0.24977621  0.70414065    -0.27180
C1944       C  0.46655257  0.26625639  0.72763184    -0.15260
C1945       C  0.45981640  0.29823276  0.73136695     0.35370
C1946       C  0.43500471  0.31144610  0.71487194    -0.26630
C1947       C  0.41673917  0.29347943  0.69477594    -0.15870
C1948       C  0.42654320  0.26294589  0.68758928     0.36460
N1949       N  0.40953078  0.24428725  0.66583622    -0.90120
H1950       H  0.45725909  0.22584781  0.69979864     0.17570
H1951       H  0.42800337  0.33509228  0.72004928     0.17560
N1952       N  0.47691684  0.31696660  0.75284257    -0.89150
H1953       H  0.41886136  0.22190895  0.66430062     0.34940
H1954       H  0.41240234  0.25439604  0.64397820     0.40040
H1955       H  0.46970547  0.31092042  0.77513281     0.39660
H1956       H  0.47127232  0.34044335  0.75022749     0.34550
C1957       C  0.54326719  0.26451655  0.70064371    -0.27180
C1958       C  0.53524756  0.27204991  0.73142840    -0.15260
C1959       C  0.55038534  0.29754566  0.74560412     0.35370
C1960       C  0.57511364  0.31209352  0.73027840    -0.26630
C1961       C  0.58724836  0.30042874  0.70218436    -0.15870
C1962       C  0.56966051  0.27757651  0.68627965     0.36460
N1963       N  0.57894979  0.26554414  0.65667414    -0.90120
H1964       H  0.53084531  0.24631242  0.68864416     0.17570
H1965       H  0.58710063  0.33058150  0.74243412     0.17560
N1966       N  0.54248911  0.30847259  0.77616347    -0.89150
H1967       H  0.59995015  0.25370354  0.65900025     0.34940
H1968       H  0.58192973  0.28416437  0.64139002     0.40040
H1969       H  0.52305069  0.29712287  0.78512796     0.39660
H1970       H  0.56111752  0.30347332  0.79073351     0.34550
C1971       C  0.54297347  0.23506254  0.80068946    -0.27180
C1972       C  0.53606686  0.22752213  0.76972726    -0.15260
C1973       C  0.55225004  0.20263673  0.75549056     0.35370
C1974       C  0.57636613  0.18821701  0.77130977    -0.26630
C1975       C  0.58700610  0.19934474  0.80005186    -0.15870
C1976       C  0.56896528  0.22202958  0.81571064     0.36460
N1977       N  0.57806871  0.23341385  0.84563650    -0.90120
H1978       H  0.52985670  0.25312948  0.81226855     0.17570
H1979       H  0.58900353  0.17007732  0.75917022     0.17560
N1980       N  0.54632119  0.19252116  0.72426662    -0.89150
H1981       H  0.56085818  0.24790262  0.85488015     0.34940
H1982       H  0.59756769  0.24756087  0.84236549     0.40040
H1983       H  0.52622891  0.20262922  0.71566914     0.39660
H1984       H  0.54176223  0.16864462  0.72483723     0.34550
C1985       C  0.45304271  0.75294060  0.20391789    -0.27180
C1986       C  0.46666664  0.76756041  0.22949935    -0.15260
C1987       C  0.45881885  0.79873707  0.23605086     0.35370
C1988       C  0.43385187  0.81253609  0.22032194    -0.26630
C1989       C  0.41660069  0.79576789  0.19830720    -0.15870
C1990       C  0.42816807  0.76650919  0.18832182     0.36460
N1991       N  0.41370912  0.74862323  0.16439704    -0.90120
H1992       H  0.46015109  0.72968899  0.19743286     0.17570
H1993       H  0.42597196  0.83539060  0.22744229     0.17560
N1994       N  0.47517274  0.81585472  0.25943964    -0.89150
H1995       H  0.39156534  0.74192910  0.17176251     0.34940
H1996       H  0.41213532  0.76230705  0.14446906     0.40040
H1997       H  0.46936456  0.80632677  0.28088760     0.39660
H1998       H  0.46762078  0.83893430  0.26010191     0.34550
C1999       C  0.45317006  0.69967653  0.25773597    -0.27180
C2000       C  0.46587842  0.72636191  0.27147889    -0.15260
C2001       C  0.45514354  0.73537914  0.30111684     0.35370
C2002       C  0.42918424  0.72034454  0.31419030    -0.26630
C2003       C  0.41344484  0.69664869  0.29819528    -0.15870
C2004       C  0.42700134  0.68471496  0.27062414     0.36460
N2005       N  0.41253458  0.65968960  0.25396809    -0.90120
H2006       H  0.46193971  0.69205843  0.23542223     0.17570
H2007       H  0.41956876  0.72905237  0.33580192     0.17560
N2008       N  0.46913851  0.76115737  0.31691752    -0.89150
H2009       H  0.42729270  0.65158880  0.23638437     0.34940
H2010       H  0.39317641  0.66886375  0.24275890     0.40040
H2011       H  0.49112886  0.75405684  0.32389808     0.39660
H2012       H  0.45688338  0.76642203  0.33726380     0.34550
C2013       C  0.56667250  0.68453339  0.28218638    -0.27180
C2014       C  0.58448624  0.70002766  0.30461133    -0.15260
C2015       C  0.57392086  0.72905757  0.31578255     0.35370
C2016       C  0.54915995  0.74396791  0.30103622    -0.26630
C2017       C  0.53428974  0.73035924  0.27555529    -0.15870
C2018       C  0.54173462  0.69944468  0.26758953     0.36460
N2019       N  0.52546038  0.68374343  0.24336879    -0.90120
H2020       H  0.57398206  0.66193311  0.27374764     0.17570
H2021       H  0.54297728  0.76721396  0.30836884     0.17560
N2022       N  0.58998613  0.74491162  0.34010644    -0.89150
H2023       H  0.51545218  0.66369844  0.25282174     0.34940
H2024       H  0.54169729  0.67665352  0.22667214     0.40040
H2025       H  0.57402866  0.74962095  0.35787356     0.39660
H2026       H  0.59811497  0.76612484  0.33142041     0.34550
C2027       C  0.54834394  0.79847028  0.24902375    -0.27180
C2028       C  0.53448302  0.77270667  0.23472844    -0.15260
C2029       C  0.54252967  0.76571576  0.20372403     0.35370
C2030       C  0.56783176  0.78116631  0.18975871    -0.26630
C2031       C  0.58511483  0.80345961  0.20616127    -0.15870
C2032       C  0.57349845  0.81408925  0.23507726     0.36460
N2033       N  0.58891646  0.83869132  0.25152734    -0.90120
H2034       H  0.54080173  0.80525475  0.27202793     0.17570
H2035       H  0.57585735  0.77366409  0.16708723     0.17560
N2036       N  0.52598765  0.74213923  0.18695848    -0.89150
H2037       H  0.57816629  0.84274970  0.27296406     0.34940
H2038       H  0.58627086  0.85901584  0.23856434     0.40040
H2039       H  0.53107442  0.72078584  0.19701630     0.39660
H2040       H  0.53397537  0.74086689  0.16404545     0.34550
C2041       C  0.42974095  0.27322475  0.31274417    -0.27180
C2042       C  0.41530734  0.29946232  0.29979541    -0.15260
C2043       C  0.43037607  0.31437151  0.27445419     0.35370
C2044       C  0.45620525  0.30031624  0.26030986    -0.26630
C2045       C  0.46740805  0.27148809  0.27044878    -0.15870
C2046       C  0.45521264  0.25886916  0.29827708     0.36460
N2047       N  0.46702788  0.23085630  0.31185364    -0.90120
H2048       H  0.41946094  0.26194841  0.33280478     0.17570
H2049       H  0.46556704  0.31058206  0.23934957     0.17560
N2050       N  0.41888622  0.34241532  0.26090376    -0.89150
H2051       H  0.44956668  0.21399604  0.31072325     0.34940
H2052       H  0.48614744  0.22240570  0.29958831     0.40040
H2053       H  0.41646337  0.35918048  0.27832454     0.39660
H2054       H  0.39738517  0.33802358  0.25075987     0.34550
C2055       C  0.45149172  0.24908635  0.20237964    -0.27180
C2056       C  0.46712197  0.23325489  0.22594168    -0.15260
C2057       C  0.45916954  0.20201450  0.23183081     0.35370
C2058       C  0.43330223  0.18870453  0.21714763    -0.26630
C2059       C  0.41479141  0.20614152  0.19687204    -0.15870
C2060       C  0.42544664  0.23614525  0.18797056     0.36460
N2061       N  0.40892576  0.25536666  0.16664439    -0.90120
H2062       H  0.45779374  0.27290237  0.19710825     0.17570
H2063       H  0.42607149  0.16549924  0.22382490     0.17560
N2064       N  0.47611032  0.18414683  0.25389649    -0.89150
H2065       H  0.38718715  0.26073065  0.17605094     0.34940
H2066       H  0.40625766  0.24323841  0.14581474     0.40040
H2067       H  0.48515556  0.16471115  0.24240925     0.39660
H2068       H  0.46051729  0.17611672  0.27075946     0.34550
C2069       C  0.54598074  0.20368674  0.24096303    -0.27180
C2070       C  0.53606235  0.23148790  0.22744715    -0.15260
C2071       C  0.54931555  0.24080393  0.19897056     0.35370
C2072       C  0.57503986  0.22443884  0.18687684    -0.26630
C2073       C  0.58778619  0.19895828  0.20279427    -0.15870
C2074       C  0.57123900  0.18713463  0.22888043     0.36460
N2075       N  0.58025980  0.15932968  0.24469833    -0.90120
H2076       H  0.53577923  0.19613890  0.26271030     0.17570
H2077       H  0.58680853  0.23345219  0.16650379     0.17560
N2078       N  0.53792677  0.26794818  0.18348221    -0.89150
H2079       H  0.60057876  0.16330387  0.25713185     0.34940
H2080       H  0.58389411  0.14171472  0.22834684     0.40040
H2081       H  0.51512320  0.26329709  0.17676557     0.39660
H2082       H  0.55059763  0.27210938  0.16313967     0.34550
C2083       C  0.57383767  0.31511661  0.27456332    -0.27180
C2084       C  0.58707782  0.29966683  0.29992696    -0.15260
C2085       C  0.57145087  0.27334292  0.31205646     0.35370
C2086       C  0.54639598  0.26036072  0.29596255    -0.26630
C2087       C  0.53578638  0.27351881  0.26831566    -0.15870
C2088       C  0.54820861  0.30255815  0.25880714     0.36460
N2089       N  0.53677661  0.31897954  0.23227390    -0.90120
H2090       H  0.58499437  0.33567011  0.26515620     0.17570
H2091       H  0.53694596  0.23843292  0.30388198     0.17560
N2092       N  0.58229176  0.25830304  0.33953869    -0.89150
H2093       H  0.52918885  0.34076853  0.23994103     0.34940
H2094       H  0.51722602  0.30803082  0.22324014     0.40040
H2095       H  0.56398413  0.25765720  0.35557469     0.39660
H2096       H  0.58815160  0.23539186  0.33386891     0.34550
loop_ 
_geom_bond_atom_site_label_1 
_geom_bond_atom_site_label_2 
_geom_bond_distance 
_geom_bond_site_symmetry_2 
_ccdc_geom_bond_type 
C1            C2   1.359       .  D
C1         C2070   1.493       .  S
C1         C2087   1.496       .  S
C2         C2045   1.496       .  S
C2         C2056   1.496       .  S
C3            C4   1.357       .  D
C3         C2017   1.496       .  S
C3         C2028   1.497       .  S
C4         C1986   1.496       .  S
C4         C2000   1.498       .  S
C5            C6   1.361       .  D
C5         C1958   1.499       .  S
C5         C1972   1.497       .  S
C6         C1930   1.503       .  S
C6         C1944   1.503       .  S
C7            C8   1.358       .  D
C7         C1902   1.494       .  S
C7         C1916   1.493       .  S
C8         C1877   1.496       .  S
C8         C1888   1.492       .  S
C9           C10   1.353   1_565  D
C9         C1849   1.490       .  S
C9         C1863   1.494       .  S
C10        C1821   1.491       .  S
C10        C1832   1.488       .  S
O11          C26   1.263       .  A
O11         Al19   1.912       .  S
C12          O22   1.258       .  A
C12          O13   1.255       .  A
C12          C71   1.456       .  S
O13         Al15   1.897       .  S
O14          C16   1.257       .  A
O14         Al15   1.876       .  S
Al15         O23   1.906       .  S
Al15         O25   1.887       .  S
Al15         O24   1.790       .  S
C16          O29   1.257       .  A
C16          C34   1.450       .  S
O17          C27   1.256       .  A
O17         Al19   1.881       .  S
O18          C31   1.264       .  A
O18         Al28   1.908       .  S
Al19         O32   1.892       .  S
Al19         O29   1.901       .  S
Al19         O24   1.797       .  S
O20          C27   1.259       .  A
O20         Al28   1.904       .  S
O21          C30   1.263       .  A
O21         Al28   1.898       .  S
O22         Al28   1.891       .  S
O23          C30   1.263       .  A
O24         Al28   1.790       .  S
O25          C26   1.260       .  A
C26        C1804   1.488       .  S
C27          C82   1.455       .  S
C30        C1933   1.486       .  S
C31          O32   1.260       .  A
C31        C1835   1.482       .  S
O33          C48   1.266       .  A
O33         Al41   1.924       .  S
C34          O44   1.259       .  A
C34          O35   1.255       .  A
O35         Al37   1.885       .  S
O36          C38   1.258       .  A
O36         Al37   1.890       .  S
Al37         O45   1.912       .  S
Al37         O47   1.870       .  S
Al37         O46   1.791       .  S
C38          O51   1.255       .  A
C38          C60   1.455       .  S
O39          C49   1.258       .  A
O39         Al41   1.895       .  S
O40          C53   1.265       .  A
O40         Al50   1.904       .  S
Al41         O54   1.898       .  S
Al41         O51   1.891       .  S
Al41         O46   1.801       .  S
O42          C49   1.255       .  A
O42         Al50   1.896       .  S
O43          C52   1.260       .  A
O43         Al50   1.891       .  S
O44         Al50   1.891       .  S
O45          C52   1.262       .  A
O46         Al50   1.795       .  S
O47          C48   1.258       .  A
C48        C1779   1.497       .  S
C49          C93   1.459       .  S
C52        C1762   1.492       .  S
C53          O54   1.261       .  A
C53        C1790   1.481       .  S
O55          C70   1.267       .  A
O55         Al63   1.931       .  S
C56          O66   1.256       .  A
C56          O57   1.255       .  A
C56          C78   1.451       .  S
O57         Al59   1.893       .  S
O58          C60   1.259       .  A
O58         Al59   1.888       .  S
Al59         O67   1.904       .  S
Al59         O69   1.867       .  S
Al59         O68   1.786       .  S
C60          O73   1.258       .  A
O61          C71   1.257       .  A
O61         Al63   1.887       .  S
O62          C75   1.263       .  A
O62         Al72   1.902       .  S
Al63         O76   1.905       .  S
Al63         O73   1.900       .  S
Al63         O68   1.799       .  S
O64          C71   1.256       .  A
O64         Al72   1.897       .  S
O65          C74   1.261       .  A
O65         Al72   1.905       .  S
O66         Al72   1.884       .  S
O67          C74   1.264       .  A
O68         Al72   1.795       .  S
O69          C70   1.257       .  A
C70        C1748   1.499       .  S
C74        C1919   1.484       .  S
C75          O76   1.263       .  A
C75        C1947   1.487       .  S
O77          C92   1.265       .  A
O77         Al85   1.910       .  S
C78          O88   1.257       .  A
C78          O79   1.257       .  A
O79         Al81   1.897       .  S
O80          C82   1.255       .  A
O80         Al81   1.878       .  S
Al81         O89   1.909       .  S
Al81         O91   1.889       .  S
Al81         O90   1.795       .  S
C82          O95   1.258       .  A
O83          C93   1.258       .  A
O83         Al85   1.888       .  S
O84          C97   1.264       .  A
O84         Al94   1.904       .  S
Al85         O98   1.905       .  S
Al85         O95   1.905       .  S
Al85         O90   1.795       .  S
O86          C93   1.257       .  A
O86         Al94   1.906       .  S
O87          C96   1.260       .  A
O87         Al94   1.895       .  S
O88         Al94   1.881       .  S
O89          C96   1.262       .  A
O90         Al94   1.793       .  S
O91          C92   1.260       .  A
C92        C1818   1.482       .  S
C96        C1905   1.485       .  S
C97          O98   1.262       .  A
C97        C1737   1.482       .  S
C99         C100   1.357   1_455  D
C99        C1734   1.493       .  S
C99        C1793   1.491       .  S
C100       C1709   1.495       .  S
C100       C1720   1.495       .  S
C101        C102   1.358       .  D
C101       C1751   1.494       .  S
C101       C1776   1.491       .  S
C102       C1678   1.493       .  S
C102       C1692   1.494       .  S
C103        C104   1.358       .  D
C103       C1650   1.497       .  S
C103       C1664   1.489       .  S
C104       C1622   1.497       .  S
C104       C1636   1.493       .  S
C105        C106   1.357   1_556  D
C105       C1594   1.495       .  S
C105       C1608   1.491       .  S
C106       C1566   1.494       .  S
C106       C1580   1.500       .  S
O107        C122   1.264       .  A
O107       Al115   1.910       .  S
C108        O118   1.257       .  A
C108        O109   1.259       .  A
C108        C134   1.457       .  S
O109       Al111   1.892       .  S
O110        C112   1.262       .  A
O110       Al111   1.921       .  S
Al111       O119   1.911       .  S
Al111       O121   1.903       .  S
Al111       O120   1.789       .  S
C112        O125   1.254       .  A
C112        C174   1.456       .  S
O113        C123   1.259       .  A
O113       Al115   1.909       .  S
O114        C127   1.261       .  A
O114       Al124   1.894       .  S
Al115       O128   1.912       .  S
Al115       O125   1.870       .  S
Al115       O120   1.792       .  S
O116        C123   1.259       .  A
O116       Al124   1.887       .  S
O117        C126   1.265       .  A
O117       Al124   1.904       .  S
O118       Al124   1.903       .  S
O119        C126   1.264       .  A
O120       Al124   1.785       .  S
O121        C122   1.262       .  A
C122       C1583   1.488       .  S
C123        C156   1.456       .  S
C126       C1552   1.483       .  S
C127        O128   1.264       .  A
C127       C1639   1.485       .  S
O129        C144   1.262       .  A
O129       Al137   1.901       .  S
C130        O140   1.264       .  A
C130        O131   1.255       .  A
C130        C178   1.459       .  S
O131       Al133   1.874       .  S
O132        C134   1.260       .  A
O132       Al133   1.911       .  S
Al133       O141   1.914       .  S
Al133       O143   1.899       .  S
Al133       O142   1.788       .  S
C134        O147   1.257       .  A
O135        C145   1.258       .  A
O135       Al137   1.903       .  S
O136        C149   1.263       .  A
O136       Al146   1.908       .  S
Al137       O150   1.907       .  S
Al137       O147   1.884       .  S
Al137       O142   1.787       .  S
O138        C145   1.260       .  A
O138       Al146   1.888       .  S
O139        C148   1.263       .  A
O139       Al146   1.901       .  S
O140       Al146   1.928       .  S
O141        C148   1.263       .  A
O142       Al146   1.780       .  S
O143        C144   1.262       .  A
C144       C1510   1.476       .  S
C145        C152   1.453       .  S
C148       C1538   1.486       .  S
C149        O150   1.265       .  A
C149       C1524   1.484       .  S
O151        C166   1.264       .  A
O151       Al159   1.913       .  S
C152        O162   1.257       .  A
C152        O153   1.259       .  A
O153       Al155   1.892       .  S
O154        C156   1.257       .  A
O154       Al155   1.900       .  S
Al155       O163   1.906       .  S
Al155       O165   1.909       .  S
Al155       O164   1.789       .  S
C156        O169   1.260       .  A
O157        C167   1.261       .  A
O157       Al159   1.916       .  S
O158        C171   1.261       .  A
O158       Al168   1.896       .  S
Al159       O172   1.916       .  S
Al159       O169   1.894       .  S
Al159       O164   1.791       .  S
O160        C167   1.256       .  A
O160       Al168   1.882       .  S
O161        C170   1.265       .  A
O161       Al168   1.907       .  S
O162       Al168   1.897       .  S
O163        C170   1.262       .  A
O164       Al168   1.787       .  S
O165        C166   1.267       .  A
C166       C1625   1.491       .  S
C167        C189   1.459       .  S
C170       C1496   1.484       .  S
C171        O172   1.266       .  A
C171       C2084   1.492       .  S
O173        C188   1.266       .  A
O173       Al181   1.906       .  S
C174        O184   1.258       .  A
C174        O175   1.258       .  A
O175       Al177   1.907       .  S
O176        C178   1.259       .  A
O176       Al177   1.888       .  S
Al177       O185   1.902       .  S
Al177       O187   1.905       .  S
Al177       O186   1.784       .  S
C178        O191   1.260       .  A
O179        C189   1.259       .  A
O179       Al181   1.887       .  S
O180        C193   1.266       .  A
O180       Al190   1.910       .  S
Al181       O194   1.905       .  S
Al181       O191   1.914       .  S
Al181       O186   1.782       .  S
O182        C189   1.262       .  A
O182       Al190   1.915       .  S
O183        C192   1.267       .  A
O183       Al190   1.915       .  S
O184       Al190   1.886       .  S
O185        C192   1.264       .  A
O186       Al190   1.782       .  S
O187        C188   1.263       .  A
C188       C1482   1.488       .  S
C192       C1569   1.489       .  S
C193        O194   1.261       .  A
C193       C2073   1.493       .  S
C195        C196   1.361   1_545  D
C195       C1485   1.495       .  S
C195       C1541   1.494       .  S
C196       C1454   1.498       .  S
C196       C1471   1.500       .  S
C197        C198   1.358       .  D
C197       C1499   1.494       .  S
C197       C1527   1.492       .  S
C198       C1426   1.493       .  S
C198       C1440   1.495       .  S
C199        C200   1.354   1_556  D
C199       C1398   1.490       .  S
C199       C1415   1.491       .  S
C200       C1370   1.491       .  S
C200       C1384   1.492       .  S
O201        C216   1.264       .  A
O201       Al209   1.915       .  S
C202        O212   1.263       .  A
C202        O203   1.257       .  A
C202        C239   1.462       .  S
O203       Al205   1.886       .  S
O204        C206   1.258       .  A
O204       Al205   1.901       .  S
Al205       O213   1.918       .  S
Al205       O215   1.908       .  S
Al205       O214   1.787       .  S
C206        O219   1.261       .  A
C206        C272   1.448       .  S
O207        C217   1.261       .  A
O207       Al209   1.922       .  S
O208        C221   1.265       .  A
O208       Al218   1.914       .  S
Al209       O222   1.902       .  S
Al209       O219   1.890       .  S
Al209       O214   1.784       .  S
O210        C217   1.257       .  A
O210       Al218   1.884       .  S
O211        C220   1.261       .  A
O211       Al218   1.897       .  S
O212       Al218   1.920       .  S
O213        C220   1.264       .  A
O214       Al218   1.781       .  S
O215        C216   1.267       .  A
C216       C1653   1.489       .  S
C217        C246   1.462       .  S
C220       C1356   1.483       .  S
C221        O222   1.266       .  A
C221       C1387   1.485       .  S
O223        C238   1.264       .  A
O223       Al231   1.907       .  S
C224        O234   1.261       .  A
C224        O225   1.255       .  A
C224        C261   1.447       .  S
O225       Al227   1.889       .  S
O226        C228   1.256       .  A
O226       Al227   1.883       .  S
Al227       O235   1.918       .  S
Al227       O237   1.904       .  S
Al227       O236   1.789       .  S
C228        O241   1.261       .  A
C228        C283   1.458       .  S
O229        C239   1.259       .  A
O229       Al231   1.897       .  S
O230        C243   1.264       .  A
O230       Al240   1.910       .  S
Al231       O244   1.905       .  S
Al231       O241   1.911       .  S
Al231       O236   1.783       .  S
O232        C239   1.258       .  A
O232       Al240   1.908       .  S
O233        C242   1.259       .  A
O233       Al240   1.894       .  S
O234       Al240   1.895       .  S
O235        C242   1.269       .  A
O236       Al240   1.781       .  S
O237        C238   1.262       .  A
C238       C1342   1.487       .  S
C242       C1457   1.493       .  S
C243        O244   1.265       .  A
C243       C1328   1.493       .  S
O245        C260   1.263       .  A
O245       Al253   1.898       .  S
C246        O256   1.257       .  A
C246        O247   1.262       .  A
O247       Al249   1.915       .  S
O248        C250   1.257       .  A
O248       Al249   1.894       .  S
Al249       O257   1.907       .  S
Al249       O259   1.919       .  S
Al249       O258   1.791       .  S
C250        O263   1.257       .  A
C250        C268   1.460       .  S
O251        C261   1.262       .  A
O251       Al253   1.896       .  S
O252        C265   1.268       .  A
O252       Al262   1.928       .  S
Al253       O266   1.880       .  S
Al253       O263   1.903       .  S
Al253       O258   1.779       .  S
O254        C261   1.254       .  A
O254       Al262   1.889       .  S
O255        C264   1.262       .  A
O255       Al262   1.891       .  S
O256       Al262   1.884       .  S
O257        C264   1.263       .  A
O258       Al262   1.792       .  S
O259        C260   1.267       .  A
C260       C2031   1.489       .  S
C264       C1373   1.490       .  S
C265        O266   1.261       .  A
C265       C1468   1.494       .  S
O267        C282   1.264       .  A
O267       Al275   1.903       .  S
C268        O278   1.262       .  A
C268        O269   1.257       .  A
O269       Al271   1.887       .  S
O270        C272   1.257       .  A
O270       Al271   1.898       .  S
Al271       O279   1.913       .  S
Al271       O281   1.912       .  S
Al271       O280   1.789       .  S
C272        O285   1.259       .  A
O273        C283   1.260       .  A
O273       Al275   1.911       .  S
O274        C287   1.264       .  A
O274       Al284   1.900       .  S
Al275       O288   1.907       .  S
Al275       O285   1.888       .  S
Al275       O280   1.785       .  S
O276        C283   1.258       .  A
O276       Al284   1.888       .  S
O277        C286   1.261       .  A
O277       Al284   1.899       .  S
O278       Al284   1.915       .  S
O279        C286   1.263       .  A
O280       Al284   1.780       .  S
O281        C282   1.266       .  A
C282       C1667   1.487       .  S
C286       C2014   1.486       .  S
C287        O288   1.264       .  A
C287       C1314   1.490       .  S
C289        C290   1.361       .  D
C289       C1317   1.495       .  S
C289       C1345   1.496       .  S
C290       C1286   1.502       .  S
C290       C1300   1.494       .  S
C291        C292   1.358   1_545  D
C291       C1230   1.496       .  S
C291       C1244   1.490       .  S
C292       C1258   1.498       .  S
C292       C1272   1.494       .  S
O293        C308   1.262       .  A
O293       Al301   1.882       .  S
C294        O304   1.258       .  A
C294        O295   1.256       .  A
C294        C331   1.452       .  S
O295       Al297   1.879       .  S
O296        C298   1.256       .  A
O296       Al297   1.895       .  S
Al297       O305   1.907       .  S
Al297       O307   1.921       .  S
Al297       O306   1.791       .  S
C298        O311   1.262       .  A
C298        C364   1.454       .  S
O299        C309   1.258       .  A
O299       Al301   1.906       .  S
O300        C313   1.262       .  A
O300       Al310   1.899       .  S
Al301       O314   1.910       .  S
Al301       O311   1.902       .  S
Al301       O306   1.781       .  S
O302        C309   1.258       .  A
O302       Al310   1.893       .  S
O303        C312   1.263       .  A
O303       Al310   1.903       .  S
O304       Al310   1.901       .  S
O305        C312   1.263       .  A
O306       Al310   1.787       .  S
O307        C308   1.267       .  A
C308       C1975   1.494       .  S
C309        C338   1.460       .  S
C312       C1597   1.486       .  S
C313        O314   1.266       .  A
C313       C1247   1.489       .  S
O315        C330   1.257       .  A
O315       Al323   1.884       .  S
C316        O326   1.262       .  A
C316        O317   1.259       .  A
C316        C353   1.455       .  S
O317       Al319   1.905       .  S
O318        C320   1.255       .  A
O318       Al319   1.882       .  S
Al319       O327   1.907       .  S
Al319       O329   1.926       .  S
Al319       O328   1.789       .  S
C320        O333   1.261       .  A
C320        C375   1.457       .  S
O321        C331   1.256       .  A
O321       Al323   1.874       .  S
O322        C335   1.267       .  A
O322       Al332   1.918       .  S
Al323       O336   1.888       .  S
Al323       O333   1.916       .  S
Al323       O328   1.778       .  S
O324        C331   1.261       .  A
O324       Al332   1.915       .  S
O325        C334   1.265       .  A
O325       Al332   1.906       .  S
O326       Al332   1.895       .  S
O327        C334   1.266       .  A
O328       Al332   1.784       .  S
O329        C330   1.266       .  A
C330       C1216   1.479       .  S
C334       C1706   1.488       .  S
C335        O336   1.262       .  A
C335       C1611   1.490       .  S
O337        C352   1.266       .  A
O337       Al345   1.913       .  S
C338        O348   1.257       .  A
C338        O339   1.264       .  A
O339       Al341   1.922       .  S
O340        C342   1.258       .  A
O340       Al341   1.883       .  S
Al341       O349   1.901       .  S
Al341       O351   1.910       .  S
Al341       O350   1.781       .  S
C342        O355   1.261       .  A
C342        C360   1.458       .  S
O343        C353   1.261       .  A
O343       Al345   1.898       .  S
O344        C357   1.266       .  A
O344       Al354   1.903       .  S
Al345       O358   1.915       .  S
Al345       O355   1.914       .  S
Al345       O350   1.785       .  S
O346        C353   1.257       .  A
O346       Al354   1.901       .  S
O347        C356   1.261       .  A
O347       Al354   1.915       .  S
O348       Al354   1.883       .  S
O349        C356   1.263       .  A
O350       Al354   1.789       .  S
O351        C352   1.265       .  A
C352       C1443   1.496       .  S
C356       C1233   1.488       .  S
C357        O358   1.266       .  A
C357       C1723   1.487       .  S
O359        C374   1.264       .  A
O359       Al367   1.894       .  S
C360        O370   1.261       .  A
C360        O361   1.256       .  A
O361       Al363   1.883       .  S
O362        C364   1.256       .  A
O362       Al363   1.897       .  S
Al363       O371   1.907       .  S
Al363       O373   1.920       .  S
Al363       O372   1.793       .  S
C364        O377   1.261       .  A
O365        C375   1.258       .  A
O365       Al367   1.905       .  S
O366        C379   1.265       .  A
O366       Al376   1.907       .  S
Al367       O380   1.912       .  S
Al367       O377   1.897       .  S
Al367       O372   1.783       .  S
O368        C375   1.257       .  A
O368       Al376   1.889       .  S
O369        C378   1.262       .  A
O369       Al376   1.901       .  S
O370       Al376   1.911       .  S
O371        C378   1.263       .  A
O372       Al376   1.786       .  S
O373        C374   1.267       .  A
C374       C1961   1.496       .  S
C378       C1429   1.488       .  S
C379        O380   1.266       .  A
C379       C1202   1.495       .  S
C381        C382   1.357       .  D
C381       C1205   1.499       .  S
C381       C1219   1.489       .  S
C382       C1174   1.486       .  S
C382       C1188   1.497       .  S
O383        C398   1.264       .  A
O383       Al391   1.900       .  S
C384        O394   1.256       .  A
C384        O385   1.259       .  A
C384        C421   1.454       .  S
O385       Al387   1.889       .  S
O386        C388   1.253       .  A
O386       Al387   1.889       .  S
Al387       O395   1.888       .  S
Al387       O397   1.911       .  S
Al387       O396   1.788       .  S
C388        O401   1.260       .  A
C388        C443   1.455       .  S
O389        C399   1.261       .  A
O389       Al391   1.914       .  S
O390        C403   1.260       .  A
O390       Al400   1.894       .  S
Al391       O404   1.917       .  S
Al391       O401   1.898       .  S
Al391       O396   1.792       .  S
O392        C399   1.255       .  A
O392       Al400   1.871       .  S
O393        C402   1.267       .  A
O393       Al400   1.915       .  S
O394       Al400   1.899       .  S
O395        C402   1.259       .  A
O396       Al400   1.791       .  S
O397        C398   1.266       .  A
C398       C1401   1.489       .  S
C399        C454   1.454       .  S
C402       C1160   1.488       .  S
C403        O404   1.265       .  A
C403       C1191   1.494       .  S
O405        C420   1.260       .  A
O405       Al413   1.889       .  S
C406        O416   1.258       .  A
C406        O407   1.258       .  A
C406        C450   1.458       .  S
O407       Al409   1.894       .  S
O408        C410   1.253       .  A
O408       Al409   1.885       .  S
Al409       O417   1.880       .  S
Al409       O419   1.913       .  S
Al409       O418   1.794       .  S
C410        O423   1.259       .  A
C410        C428   1.452       .  S
O411        C421   1.252       .  A
O411       Al413   1.878       .  S
O412        C425   1.262       .  A
O412       Al422   1.887       .  S
Al413       O426   1.919       .  S
Al413       O423   1.896       .  S
Al413       O418   1.794       .  S
O414        C421   1.261       .  A
O414       Al422   1.905       .  S
O415        C424   1.265       .  A
O415       Al422   1.920       .  S
O416       Al422   1.897       .  S
O417        C424   1.259       .  A
O418       Al422   1.791       .  S
O419        C420   1.266       .  A
C420       C1275   1.488       .  S
C424       C1303   1.497       .  S
C425        O426   1.268       .  A
C425       C1146   1.492       .  S
O427        C442   1.258       .  A
O427       Al435   1.886       .  S
C428        O438   1.255       .  A
C428        O429   1.262       .  A
O429       Al431   1.896       .  S
O430        C432   1.257       .  A
O430       Al431   1.907       .  S
Al431       O439   1.876       .  S
Al431       O441   1.911       .  S
Al431       O440   1.788       .  S
C432        O445   1.255       .  A
C432        C465   1.457       .  S
O433        C443   1.255       .  A
O433       Al435   1.891       .  S
O434        C447   1.262       .  A
O434       Al444   1.902       .  S
Al435       O448   1.900       .  S
Al435       O445   1.882       .  S
Al435       O440   1.791       .  S
O436        C443   1.259       .  A
O436       Al444   1.893       .  S
O437        C446   1.270       .  A
O437       Al444   1.931       .  S
O438       Al444   1.890       .  S
O439        C446   1.256       .  A
O440       Al444   1.796       .  S
O441        C442   1.265       .  A
C442       C1132   1.487       .  S
C446       C1261   1.492       .  S
C447        O448   1.262       .  A
C447       C1412   1.487       .  S
O449        C464   1.266       .  A
O449       Al457   1.907       .  S
C450        O460   1.256       .  A
C450        O451   1.260       .  A
O451       Al453   1.910       .  S
O452        C454   1.256       .  A
O452       Al453   1.875       .  S
Al453       O461   1.883       .  S
Al453       O463   1.900       .  S
Al453       O462   1.774       .  S
C454        O467   1.261       .  A
O455        C465   1.258       .  A
O455       Al457   1.877       .  S
O456        C469   1.267       .  A
O456       Al466   1.915       .  S
Al457       O470   1.904       .  S
Al457       O467   1.921       .  S
Al457       O462   1.782       .  S
O458        C465   1.265       .  A
O458       Al466   1.924       .  S
O459        C468   1.270       .  A
O459       Al466   1.944       .  S
O460       Al466   1.888       .  S
O461        C468   1.259       .  A
O462       Al466   1.786       .  S
O463        C464   1.263       .  A
C464       C1177   1.483       .  S
C468       C1289   1.483       .  S
C469        O470   1.263       .  A
C469       C1118   1.493       .  S
C471        C472   1.355       .  D
C471       C1121   1.493       .  S
C471       C1135   1.486       .  S
C472       C1090   1.489       .  S
C472       C1104   1.495       .  S
O473        C488   1.267       .  A
O473       Al481   1.911       .  S
C474        O484   1.259       .  A
C474        O475   1.261       .  A
C474        C544   1.454       .  S
O475       Al477   1.911       .  S
O476        C478   1.260       .  A
O476       Al477   1.894       .  S
Al477       O485   1.918       .  S
Al477       O487   1.903       .  S
Al477       O486   1.783       .  S
C478        O491   1.258       .  A
C478        C522   1.457       .  S
O479        C489   1.256       .  A
O479       Al481   1.882       .  S
O480        C493   1.262       .  A
O480       Al490   1.892       .  S
Al481       O494   1.930       .  S
Al481       O491   1.904       .  S
Al481       O486   1.791       .  S
O482        C489   1.261       .  A
O482       Al490   1.918       .  S
O483        C492   1.259       .  A
O483       Al490   1.898       .  S
O484       Al490   1.882       .  S
O485        C492   1.267       .  A
O486       Al490   1.781       .  S
O487        C488   1.265       .  A
C488       C1065   1.492       .  S
C489        C500   1.460       .  S
C492       C1695   1.493       .  S
C493        O494   1.266       .  A
C493       C1076   1.484       .  S
O495        C510   1.263       .  A
O495       Al503   1.903       .  S
C496        O506   1.257       .  A
C496        O497   1.261       .  A
C496        C555   1.458       .  S
O497       Al499   1.901       .  S
O498        C500   1.262       .  A
O498       Al499   1.921       .  S
Al499       O507   1.915       .  S
Al499       O509   1.909       .  S
Al499       O508   1.785       .  S
C500        O513   1.257       .  A
O501        C511   1.261       .  A
O501       Al503   1.919       .  S
O502        C515   1.264       .  A
O502       Al512   1.905       .  S
Al503       O516   1.903       .  S
Al503       O513   1.880       .  S
Al503       O508   1.787       .  S
O504        C511   1.256       .  A
O504       Al512   1.876       .  S
O505        C514   1.265       .  A
O505       Al512   1.902       .  S
O506       Al512   1.901       .  S
O507        C514   1.265       .  A
O508       Al512   1.784       .  S
O509        C510   1.265       .  A
C510       C1051   1.491       .  S
C511        C518   1.457       .  S
C514       C1034   1.482       .  S
C515        O516   1.261       .  A
C515       C1846   1.489       .  S
O517        C532   1.267       .  A
O517       Al525   1.915       .  S
C518        O528   1.255       .  A
C518        O519   1.261       .  A
O519       Al521   1.919       .  S
O520        C522   1.261       .  A
O520       Al521   1.894       .  S
Al521       O529   1.905       .  S
Al521       O531   1.900       .  S
Al521       O530   1.783       .  S
C522        O535   1.259       .  A
O523        C533   1.256       .  A
O523       Al525   1.875       .  S
O524        C537   1.262       .  A
O524       Al534   1.901       .  S
Al525       O538   1.918       .  S
Al525       O535   1.909       .  S
Al525       O530   1.786       .  S
O526        C533   1.261       .  A
O526       Al534   1.916       .  S
O527        C536   1.265       .  A
O527       Al534   1.914       .  S
O528       Al534   1.875       .  S
O529        C536   1.265       .  A
O530       Al534   1.785       .  S
O531        C532   1.264       .  A
C532       C1020   1.492       .  S
C533        C540   1.455       .  S
C536       C1860   1.486       .  S
C537        O538   1.266       .  A
C537       C1107   1.491       .  S
O539        C554   1.265       .  A
O539       Al547   1.914       .  S
C540        O550   1.261       .  A
C540        O541   1.256       .  A
O541       Al543   1.874       .  S
O542        C544   1.262       .  A
O542       Al543   1.916       .  S
Al543       O551   1.902       .  S
Al543       O553   1.898       .  S
Al543       O552   1.779       .  S
C544        O557   1.256       .  A
O545        C555   1.260       .  A
O545       Al547   1.911       .  S
O546        C559   1.263       .  A
O546       Al556   1.911       .  S
Al547       O560   1.903       .  S
Al547       O557   1.876       .  S
Al547       O552   1.781       .  S
O548        C555   1.261       .  A
O548       Al556   1.894       .  S
O549        C558   1.264       .  A
O549       Al556   1.909       .  S
O550       Al556   1.918       .  S
O551        C558   1.265       .  A
O552       Al556   1.784       .  S
O553        C554   1.260       .  A
C554       C1681   1.488       .  S
C558       C1093   1.490       .  S
C559        O560   1.266       .  A
C559       C1006   1.481       .  S
C561        C562   1.360   1_655  D
C561       C1149   1.499       .  S
C561       C1163   1.499       .  S
C562       C1048   1.492       .  S
C562       C1079   1.496       .  S
C563        C564   1.359       .  D
C563       C1009   1.494       .  S
C563       C1037   1.498       .  S
C564        C978   1.498       .  S
C564        C992   1.493       .  S
C565        C566   1.360   1_655  D
C565       C1331   1.501       .  S
C565       C1359   1.500       .  S
C566        C953   1.496       .  S
C566        C964   1.498       .  S
O567        C582   1.267       .  A
O567       Al575   1.908       .  S
C568        O578   1.257       .  A
C568        O569   1.260       .  A
C568        C649   1.457       .  S
O569       Al571   1.916       .  S
O570        C572   1.260       .  A
O570       Al571   1.893       .  S
Al571       O579   1.909       .  S
Al571       O581   1.906       .  S
Al571       O580   1.784       .  S
C572        O585   1.257       .  A
C572        C590   1.454       .  S
O573        C583   1.256       .  A
O573       Al575   1.880       .  S
O574        C587   1.262       .  A
O574       Al584   1.903       .  S
Al575       O588   1.913       .  S
Al575       O585   1.902       .  S
Al575       O580   1.787       .  S
O576        C583   1.261       .  A
O576       Al584   1.916       .  S
O577        C586   1.264       .  A
O577       Al584   1.907       .  S
O578       Al584   1.880       .  S
O579        C586   1.265       .  A
O580       Al584   1.784       .  S
O581        C582   1.264       .  A
C582        C922   1.486       .  S
C583        C612   1.457       .  S
C586        C936   1.492       .  S
C587        O588   1.264       .  A
C587       C1989   1.488       .  S
O589        C604   1.261       .  A
O589       Al597   1.895       .  S
C590        O600   1.261       .  A
C590        O591   1.257       .  A
O591       Al593   1.896       .  S
O592        C594   1.257       .  A
O592       Al593   1.892       .  S
Al593       O601   1.922       .  S
Al593       O603   1.919       .  S
Al593       O602   1.793       .  S
C594        O607   1.259       .  A
C594        C638   1.462       .  S
O595        C605   1.258       .  A
O595       Al597   1.887       .  S
O596        C609   1.266       .  A
O596       Al606   1.918       .  S
Al597       O610   1.891       .  S
Al597       O607   1.909       .  S
Al597       O602   1.784       .  S
O598        C605   1.258       .  A
O598       Al606   1.902       .  S
O599        C608   1.261       .  A
O599       Al606   1.889       .  S
O600       Al606   1.896       .  S
O601        C608   1.269       .  A
O602       Al606   1.788       .  S
O603        C604   1.265       .  A
C604        C967   1.488       .  S
C605        C616   1.454       .  S
C608        C908   1.491       .  S
C609        O610   1.262       .  A
C609        C995   1.493       .  S
O611        C626   1.263       .  A
O611       Al619   1.911       .  S
C612        O622   1.261       .  A
C612        O613   1.256       .  A
O613       Al615   1.879       .  S
O614        C616   1.263       .  A
O614       Al615   1.917       .  S
Al615       O623   1.911       .  S
Al615       O625   1.899       .  S
Al615       O624   1.782       .  S
C616        O629   1.255       .  A
O617        C627   1.258       .  A
O617       Al619   1.906       .  S
O618        C631   1.265       .  A
O618       Al628   1.911       .  S
Al619       O632   1.901       .  S
Al619       O629   1.875       .  S
Al619       O624   1.787       .  S
O620        C627   1.260       .  A
O620       Al628   1.892       .  S
O621        C630   1.264       .  A
O621       Al628   1.906       .  S
O622       Al628   1.918       .  S
O623        C630   1.266       .  A
O624       Al628   1.782       .  S
O625        C626   1.262       .  A
C626        C981   1.483       .  S
C627        C634   1.455       .  S
C630       C2003   1.490       .  S
C631        O632   1.264       .  A
C631        C894   1.481       .  S
O633        C648   1.266       .  A
O633       Al641   1.917       .  S
C634        O644   1.257       .  A
C634        O635   1.261       .  A
O635       Al637   1.898       .  S
O636        C638   1.262       .  A
O636       Al637   1.918       .  S
Al637       O645   1.911       .  S
Al637       O647   1.900       .  S
Al637       O646   1.781       .  S
C638        O651   1.257       .  A
O639        C649   1.263       .  A
O639       Al641   1.919       .  S
O640        C653   1.261       .  A
O640       Al650   1.902       .  S
Al641       O654   1.908       .  S
Al641       O651   1.887       .  S
Al641       O646   1.787       .  S
O642        C649   1.257       .  A
O642       Al650   1.878       .  S
O643        C652   1.267       .  A
O643       Al650   1.908       .  S
O644       Al650   1.902       .  S
O645        C652   1.263       .  A
O646       Al650   1.783       .  S
O647        C648   1.264       .  A
C648        C950   1.488       .  S
C652        C866   1.485       .  S
C653        O654   1.264       .  A
C653        C883   1.487       .  S
C655        C656   1.363   1_556  D
C655       C1023   1.495       .  S
C655       C1062   1.501       .  S
C656        C880   1.494       .  S
C656        C939   1.501       .  S
C657        C658   1.355       .  D
C657        C869   1.493       .  S
C657        C897   1.490       .  S
C658        C838   1.491       .  S
C658        C855   1.492       .  S
C659        C660   1.356   1_556  D
C659       C1765   1.495       .  S
C659       C1807   1.491       .  S
C660        C810   1.493       .  S
C660        C827   1.490       .  S
C661        C662   1.361   1_545  D
C661        C782   1.491       .  S
C661        C796   1.499       .  S
C662        C911   1.500       .  S
C662        C925   1.499       .  S
O663        C678   1.264       .  A
O663       Al671   1.905       .  S
C664        O674   1.259       .  A
C664        O665   1.261       .  A
C664        C712   1.461       .  S
O665       Al667   1.915       .  S
O666        C668   1.258       .  A
O666       Al667   1.889       .  S
Al667       O675   1.919       .  S
Al667       O677   1.920       .  S
Al667       O676   1.786       .  S
C668        O681   1.260       .  A
C668        C701   1.460       .  S
O669        C679   1.257       .  A
O669       Al671   1.886       .  S
O670        C683   1.263       .  A
O670       Al680   1.907       .  S
Al671       O684   1.917       .  S
Al671       O681   1.912       .  S
Al671       O676   1.784       .  S
O672        C679   1.259       .  A
O672       Al680   1.905       .  S
O673        C682   1.263       .  A
O673       Al680   1.893       .  S
O674       Al680   1.891       .  S
O675        C682   1.266       .  A
O676       Al680   1.780       .  S
O677        C678   1.267       .  A
C678       C1874   1.492       .  S
C679        C734   1.454       .  S
C682        C852   1.495       .  S
C683        O684   1.266       .  A
C683       C2042   1.495       .  S
O685        C700   1.265       .  A
O685       Al693   1.910       .  S
C686        O696   1.256       .  A
C686        O687   1.259       .  A
C686        C708   1.450       .  S
O687       Al689   1.889       .  S
O688        C690   1.255       .  A
O688       Al689   1.894       .  S
Al689       O697   1.895       .  S
Al689       O699   1.903       .  S
Al689       O698   1.789       .  S
C690        O703   1.260       .  A
C690        C745   1.457       .  S
O691        C701   1.263       .  A
O691       Al693   1.919       .  S
O692        C705   1.260       .  A
O692       Al702   1.884       .  S
Al693       O706   1.916       .  S
Al693       O703   1.899       .  S
Al693       O698   1.792       .  S
O694        C701   1.256       .  A
O694       Al702   1.880       .  S
O695        C704   1.263       .  A
O695       Al702   1.906       .  S
O696       Al702   1.895       .  S
O697        C704   1.260       .  A
O698       Al702   1.789       .  S
O699        C700   1.265       .  A
C700        C785   1.483       .  S
C704        C768   1.485       .  S
C705        O706   1.263       .  A
C705       C1891   1.492       .  S
O707        C722   1.264       .  A
O707       Al715   1.908       .  S
C708        O718   1.255       .  A
C708        O709   1.259       .  A
O709       Al711   1.890       .  S
O710        C712   1.261       .  A
O710       Al711   1.918       .  S
Al711       O719   1.908       .  S
Al711       O721   1.902       .  S
Al711       O720   1.785       .  S
C712        O725   1.255       .  A
O713        C723   1.260       .  A
O713       Al715   1.904       .  S
O714        C727   1.257       .  A
O714       Al724   1.885       .  S
Al715       O728   1.914       .  S
Al715       O725   1.881       .  S
Al715       O720   1.789       .  S
O716        C723   1.258       .  A
O716       Al724   1.885       .  S
O717        C726   1.265       .  A
O717       Al724   1.906       .  S
O718       Al724   1.894       .  S
O719        C726   1.264       .  A
O720       Al724   1.786       .  S
O721        C722   1.262       .  A
C722        C841   1.486       .  S
C723        C730   1.452       .  S
C726        C754   1.483       .  S
C727        O728   1.265       .  A
C727        C824   1.483       .  S
O729        C744   1.265       .  A
O729       Al737   1.919       .  S
C730        O740   1.257       .  A
C730        O731   1.259       .  A
O731       Al733   1.888       .  S
O732        C734   1.260       .  A
O732       Al733   1.908       .  S
Al733       O741   1.888       .  S
Al733       O743   1.902       .  S
Al733       O742   1.783       .  S
C734        O747   1.254       .  A
O735        C745   1.259       .  A
O735       Al737   1.908       .  S
O736        C749   1.262       .  A
O736       Al746   1.909       .  S
Al737       O750   1.905       .  S
Al737       O747   1.879       .  S
Al737       O742   1.790       .  S
O738        C745   1.259       .  A
O738       Al746   1.887       .  S
O739        C748   1.269       .  A
O739       Al746   1.922       .  S
O740       Al746   1.901       .  S
O741        C748   1.259       .  A
O742       Al746   1.792       .  S
O743        C744   1.261       .  A
C744       C2059   1.491       .  S
C748        C813   1.488       .  S
C749        O750   1.265       .  A
C749        C799   1.486       .  S
C751        C752   1.354   1_655  D
C751       C1513   1.487       .  S
C751       C1555   1.493       .  S
C752        C757   1.490       .  S
C752        C771   1.494       .  S
C753        C754   1.408       .  A
C753        C758   1.410       .  A
C753        H760   1.084       .  S
C754        C755   1.410       .  A
C755        C756   1.400       .  A
C755        N762   1.433       .  S
C756        C757   1.401       .  A
C756        H761   1.081       .  S
C757        C758   1.410       .  A
C758        N759   1.437       .  S
N759        H763   1.045       .  S
N759        H764   1.042       .  S
N762        H765   1.045       .  S
N762        H766   1.046       .  S
C767        C768   1.408       .  A
C767        C772   1.403       .  A
C767        H774   1.084       .  S
C768        C769   1.412       .  A
C769        C770   1.405       .  A
C769        N776   1.437       .  S
C770        C771   1.403       .  A
C770        H775   1.080       .  S
C771        C772   1.415       .  A
C772        N773   1.437       .  S
N773        H777   1.046       .  S
N773        H778   1.042       .  S
N776        H779   1.045       .  S
N776        H780   1.046       .  S
C781        C782   1.401       .  A
C781        C786   1.403       .  A
C781        H788   1.084       .  S
C782        C783   1.409       .  A
C783        C784   1.406       .  A
C783        N790   1.431       .  S
C784        C785   1.406       .  A
C784        H789   1.084       .  S
C785        C786   1.413       .  A
C786        N787   1.432       .  S
N787        H791   1.045       .  S
N787        H792   1.046       .  S
N790        H793   1.045       .  S
N790        H794   1.045       .  S
C795        C796   1.405       .  A
C795        C800   1.407       .  A
C795        H802   1.082       .  S
C796        C797   1.412       .  A
C797        C798   1.405       .  A
C797        N804   1.435       .  S
C798        C799   1.403       .  A
C798        H803   1.084       .  S
C799        C800   1.418       .  A
C800        N801   1.438       .  S
N801        H805   1.046       .  S
N801        H806   1.044       .  S
N804        H807   1.042       .  S
N804        H808   1.046       .  S
C809        C810   1.400       .  A
C809        C814   1.399       .  A
C809        H816   1.080       .  S
C810        C811   1.407       .  A
C811        C812   1.407       .  A
C811        N818   1.431       .  S
C812        C813   1.407       .  A
C812        H817   1.084       .  S
C813        C814   1.422       .  A
C814        N815   1.434       .  S
N815        H819   1.043       .  S
N815        H820   1.045       .  S
N818        H821   1.046       .  S
N818        H822   1.045       .  S
C823        C824   1.406       .  A
C823        C828   1.408       .  A
C823        H830   1.084       .  S
C824        C825   1.420       .  A
C825        C826   1.397       .  A
C825        N832   1.434       .  S
C826        C827   1.400       .  A
C826        H831   1.079       .  S
C827        C828   1.410       .  A
C828        N829   1.436       .  S
N829        H833   1.045       .  S
N829        H834   1.044       .  S
N832        H835   1.045       .  S
N832        H836   1.043       .  S
C837        C838   1.401       .  A
C837        C842   1.399       .  A
C837        H844   1.084       .  S
C838        C839   1.407       .  A
C839        C840   1.404       .  A
C839        N846   1.429       .  S
C840        C841   1.406       .  A
C840        H845   1.084       .  S
C841        C842   1.420       .  A
C842        N843   1.432       .  S
N843        H847   1.044       .  S
N843        H848   1.045       .  S
N846        H849   1.045       .  S
N846        H850   1.045       .  S
C851        C852   1.410       .  A
C851        C856   1.398       .  A
C851        H858   1.084       .  S
C852        C853   1.421       .  A
C853        C854   1.407       .  A
C853        N860   1.432       .  S
C854        C855   1.404       .  A
C854        H859   1.083       .  S
C855        C856   1.404       .  A
C856        N857   1.432       .  S
N857        H861   1.045       .  S
N857        H862   1.046       .  S
N860        H863   1.046       .  S
N860        H864   1.044       .  S
C865        C866   1.404       .  A
C865        C870   1.404       .  A
C865        H872   1.084       .  S
C866        C867   1.419       .  A
C867        C868   1.404       .  A
C867        N874   1.433       .  S
C868        C869   1.404       .  A
C868        H873   1.084       .  S
C869        C870   1.411       .  A
C870        N871   1.436       .  S
N871        H875   1.045       .  S
N871        H876   1.043       .  S
N874        H877   1.045       .  S
N874        H878   1.043       .  S
C879        C880   1.402       .  A
C879        C884   1.402       .  A
C879        H886   1.080       .  S
C880        C881   1.411       .  A
C881        C882   1.408       .  A
C881        N888   1.436       .  S
C882        C883   1.406       .  A
C882        H887   1.083       .  S
C883        C884   1.418       .  A
C884        N885   1.439       .  S
N885        H889   1.046       .  S
N885        H890   1.044       .  S
N888        H891   1.043       .  S
N888        H892   1.045       .  S
C893        C894   1.405       .  A
C893        C898   1.404       .  A
C893        H900   1.084       .  S
C894        C895   1.415       .  A
C895        C896   1.405       .  A
C895        N902   1.437       .  S
C896        C897   1.401       .  A
C896        H901   1.084       .  S
C897        C898   1.407       .  A
C898        N899   1.430       .  S
N899        H903   1.045       .  S
N899        H904   1.045       .  S
N902        H905   1.045       .  S
N902        H906   1.046       .  S
C907        C908   1.407       .  A
C907        C912   1.414       .  A
C907        H914   1.083       .  S
C908        C909   1.414       .  A
C909        C910   1.400       .  A
C909        N916   1.433       .  S
C910        C911   1.400       .  A
C910        H915   1.079       .  S
C911        C912   1.415       .  A
C912        N913   1.436       .  S
N913        H917   1.046       .  S
N913        H918   1.041       .  S
N916        H919   1.045       .  S
N916        H920   1.046       .  S
C921        C922   1.404       .  A
C921        C926   1.403       .  A
C921        H928   1.084       .  S
C922        C923   1.413       .  A
C923        C924   1.407       .  A
C923        N930   1.438       .  S
C924        C925   1.404       .  A
C924        H929   1.080       .  S
C925        C926   1.418       .  A
C926        N927   1.435       .  S
N927        H931   1.046       .  S
N927        H932   1.040       .  S
N930        H933   1.045       .  S
N930        H934   1.046       .  S
C935        C936   1.406       .  A
C935        C940   1.402       .  A
C935        H942   1.084       .  S
C936        C937   1.415       .  A
C937        C938   1.408       .  A
C937        N944   1.437       .  S
C938        C939   1.405       .  A
C938        H943   1.079       .  S
C939        C940   1.418       .  A
C940        N941   1.435       .  S
N941        H945   1.046       .  S
N941        H946   1.037       .  S
N944        H947   1.045       .  S
N944        H948   1.046       .  S
C949        C950   1.407       .  A
C949        C954   1.406       .  A
C949        H956   1.084       .  S
C950        C951   1.415       .  A
C951        C952   1.405       .  A
C951        N958   1.438       .  S
C952        C953   1.403       .  A
C952        H957   1.081       .  S
C953        C954   1.408       .  A
C954        N955   1.431       .  S
N955        H959   1.045       .  S
N955        H960   1.046       .  S
N958        H961   1.046       .  S
N958        H962   1.046       .  S
C963        C964   1.402       .  A
C963        C968   1.403       .  A
C963        H970   1.081       .  S
C964        C965   1.414       .  A
C965        C966   1.408       .  A
C965        N972   1.435       .  S
C966        C967   1.405       .  A
C966        H971   1.084       .  S
C967        C968   1.414       .  A
C968        N969   1.432       .  S
N969        H973   1.046       .  S
N969        H974   1.045       .  S
N972        H975   1.040       .  S
N972        H976   1.046       .  S
C977        C978   1.403       .  A
C977        C982   1.403       .  A
C977        H984   1.083       .  S
C978        C979   1.413       .  A
C979        C980   1.408       .  A
C979        N986   1.433       .  S
C980        C981   1.404       .  A
C980        H985   1.084       .  S
C981        C982   1.412       .  A
C982        N983   1.432       .  S
N983        H987   1.045       .  S
N983        H988   1.046       .  S
N986        H989   1.044       .  S
N986        H990   1.045       .  S
C991        C992   1.406       .  A
C991        C996   1.414       .  A
C991        H998   1.083       .  S
C992        C993   1.414       .  A
C993        C994   1.396       .  A
C993       N1000   1.437       .  S
C994        C995   1.407       .  A
C994        H999   1.084       .  S
C995        C996   1.415       .  A
C996        N997   1.436       .  S
N997       H1001   1.046       .  S
N997       H1002   1.046       .  S
N1000      H1003   1.040       .  S
N1000      H1004   1.046       .  S
C1005      C1006   1.402       .  A
C1005      C1010   1.401       .  A
C1005      H1012   1.084       .  S
C1006      C1007   1.418       .  A
C1007      C1008   1.404       .  A
C1007      N1014   1.433       .  S
C1008      C1009   1.405       .  A
C1008      H1013   1.084       .  S
C1009      C1010   1.411       .  A
C1010      N1011   1.436       .  S
N1011      H1015   1.045       .  S
N1011      H1016   1.043       .  S
N1014      H1017   1.045       .  S
N1014      H1018   1.043       .  S
C1019      C1020   1.408       .  A
C1019      C1024   1.405       .  A
C1019      H1026   1.084       .  S
C1020      C1021   1.419       .  A
C1021      C1022   1.403       .  A
C1021      N1028   1.432       .  S
C1022      C1023   1.404       .  A
C1022      H1027   1.081       .  S
C1023      C1024   1.409       .  A
C1024      N1025   1.436       .  S
N1025      H1029   1.045       .  S
N1025      H1030   1.042       .  S
N1028      H1031   1.045       .  S
N1028      H1032   1.044       .  S
C1033      C1034   1.404       .  A
C1033      C1038   1.411       .  A
C1033      H1040   1.084       .  S
C1034      C1035   1.410       .  A
C1035      C1036   1.401       .  A
C1035      N1042   1.432       .  S
C1036      C1037   1.403       .  A
C1036      H1041   1.084       .  S
C1037      C1038   1.415       .  A
C1038      N1039   1.435       .  S
N1039      H1043   1.046       .  S
N1039      H1044   1.040       .  S
N1042      H1045   1.045       .  S
N1042      H1046   1.046       .  S
C1047      C1048   1.403       .  A
C1047      C1052   1.406       .  A
C1047      H1054   1.080       .  S
C1048      C1049   1.405       .  A
C1049      C1050   1.402       .  A
C1049      N1056   1.432       .  S
C1050      C1051   1.409       .  A
C1050      H1055   1.084       .  S
C1051      C1052   1.413       .  A
C1052      N1053   1.432       .  S
N1053      H1057   1.045       .  S
N1053      H1058   1.046       .  S
N1056      H1059   1.045       .  S
N1056      H1060   1.046       .  S
C1061      C1062   1.406       .  A
C1061      C1066   1.411       .  A
C1061      H1068   1.081       .  S
C1062      C1063   1.419       .  A
C1063      C1064   1.401       .  A
C1063      N1070   1.435       .  S
C1064      C1065   1.405       .  A
C1064      H1069   1.084       .  S
C1065      C1066   1.414       .  A
C1066      N1067   1.437       .  S
N1067      H1071   1.046       .  S
N1067      H1072   1.045       .  S
N1070      H1073   1.036       .  S
N1070      H1074   1.046       .  S
C1075      C1076   1.404       .  A
C1075      C1080   1.401       .  A
C1075      H1082   1.084       .  S
C1076      C1077   1.416       .  A
C1077      C1078   1.407       .  A
C1077      N1084   1.438       .  S
C1078      C1079   1.407       .  A
C1078      H1083   1.083       .  S
C1079      C1080   1.412       .  A
C1080      N1081   1.437       .  S
N1081      H1085   1.046       .  S
N1081      H1086   1.041       .  S
N1084      H1087   1.044       .  S
N1084      H1088   1.046       .  S
C1089      C1090   1.402       .  A
C1089      C1094   1.403       .  A
C1089      H1096   1.084       .  S
C1090      C1091   1.408       .  A
C1091      C1092   1.402       .  A
C1091      N1098   1.435       .  S
C1092      C1093   1.408       .  A
C1092      H1097   1.084       .  S
C1093      C1094   1.420       .  A
C1094      N1095   1.432       .  S
N1095      H1099   1.044       .  S
N1095      H1100   1.045       .  S
N1098      H1101   1.042       .  S
N1098      H1102   1.046       .  S
C1103      C1104   1.401       .  A
C1103      C1108   1.402       .  A
C1103      H1110   1.084       .  S
C1104      C1105   1.409       .  A
C1105      C1106   1.404       .  A
C1105      N1112   1.430       .  S
C1106      C1107   1.406       .  A
C1106      H1111   1.084       .  S
C1107      C1108   1.423       .  A
C1108      N1109   1.432       .  S
N1109      H1113   1.045       .  S
N1109      H1114   1.043       .  S
N1112      H1115   1.045       .  S
N1112      H1116   1.046       .  S
C1117      C1118   1.408       .  A
C1117      C1122   1.410       .  A
C1117      H1124   1.083       .  S
C1118      C1119   1.418       .  A
C1119      C1120   1.404       .  A
C1119      N1126   1.438       .  S
C1120      C1121   1.400       .  A
C1120      H1125   1.082       .  S
C1121      C1122   1.408       .  A
C1122      N1123   1.431       .  S
N1123      H1127   1.045       .  S
N1123      H1128   1.045       .  S
N1126      H1129   1.045       .  S
N1126      H1130   1.046       .  S
C1131      C1132   1.408       .  A
C1131      C1136   1.406       .  A
C1131      H1138   1.084       .  S
C1132      C1133   1.422       .  A
C1133      C1134   1.395       .  A
C1133      N1140   1.434       .  S
C1134      C1135   1.398       .  A
C1134      H1139   1.082       .  S
C1135      C1136   1.405       .  A
C1136      N1137   1.431       .  S
N1137      H1141   1.045       .  S
N1137      H1142   1.045       .  S
N1140      H1143   1.046       .  S
N1140      H1144   1.044       .  S
C1145      C1146   1.407       .  A
C1145      C1150   1.400       .  A
C1145      H1152   1.084       .  S
C1146      C1147   1.414       .  A
C1147      C1148   1.412       .  A
C1147      N1154   1.437       .  S
C1148      C1149   1.406       .  A
C1148      H1153   1.083       .  S
C1149      C1150   1.415       .  A
C1150      N1151   1.435       .  S
N1151      H1155   1.046       .  S
N1151      H1156   1.039       .  S
N1154      H1157   1.046       .  S
N1154      H1158   1.046       .  S
C1159      C1160   1.403       .  A
C1159      C1164   1.404       .  A
C1159      H1166   1.084       .  S
C1160      C1161   1.415       .  A
C1161      C1162   1.402       .  A
C1161      N1168   1.433       .  S
C1162      C1163   1.402       .  A
C1162      H1167   1.083       .  S
C1163      C1164   1.420       .  A
C1164      N1165   1.433       .  S
N1165      H1169   1.046       .  S
N1165      H1170   1.036       .  S
N1168      H1171   1.045       .  S
N1168      H1172   1.046       .  S
C1173      C1174   1.399       .  A
C1173      C1178   1.398       .  A
C1173      H1180   1.081       .  S
C1174      C1175   1.407       .  A
C1175      C1176   1.405       .  A
C1175      N1182   1.430       .  S
C1176      C1177   1.406       .  A
C1176      H1181   1.084       .  S
C1177      C1178   1.414       .  A
C1178      N1179   1.433       .  S
N1179      H1183   1.045       .  S
N1179      H1184   1.046       .  S
N1182      H1185   1.045       .  S
N1182      H1186   1.045       .  S
C1187      C1188   1.401       .  A
C1187      C1192   1.400       .  A
C1187      H1194   1.082       .  S
C1188      C1189   1.417       .  A
C1189      C1190   1.409       .  A
C1189      N1196   1.436       .  S
C1190      C1191   1.408       .  A
C1190      H1195   1.084       .  S
C1191      C1192   1.419       .  A
C1192      N1193   1.439       .  S
N1193      H1197   1.046       .  S
N1193      H1198   1.045       .  S
N1196      H1199   1.044       .  S
N1196      H1200   1.045       .  S
C1201      C1202   1.407       .  A
C1201      C1206   1.400       .  A
C1201      H1208   1.084       .  S
C1202      C1203   1.415       .  A
C1203      C1204   1.412       .  A
C1203      N1210   1.437       .  S
C1204      C1205   1.405       .  A
C1204      H1209   1.083       .  S
C1205      C1206   1.415       .  A
C1206      N1207   1.436       .  S
N1207      H1211   1.045       .  S
N1207      H1212   1.041       .  S
N1210      H1213   1.046       .  S
N1210      H1214   1.046       .  S
C1215      C1216   1.401       .  A
C1215      C1220   1.403       .  A
C1215      H1222   1.084       .  S
C1216      C1217   1.415       .  A
C1217      C1218   1.401       .  A
C1217      N1224   1.433       .  S
C1218      C1219   1.400       .  A
C1218      H1223   1.084       .  S
C1219      C1220   1.412       .  A
C1220      N1221   1.429       .  S
N1221      H1225   1.045       .  S
N1221      H1226   1.046       .  S
N1224      H1227   1.046       .  S
N1224      H1228   1.045       .  S
C1229      C1230   1.404       .  A
C1229      C1234   1.403       .  A
C1229      H1236   1.083       .  S
C1230      C1231   1.410       .  A
C1231      C1232   1.404       .  A
C1231      N1238   1.434       .  S
C1232      C1233   1.405       .  A
C1232      H1237   1.083       .  S
C1233      C1234   1.419       .  A
C1234      N1235   1.433       .  S
N1235      H1239   1.043       .  S
N1235      H1240   1.046       .  S
N1238      H1241   1.043       .  S
N1238      H1242   1.045       .  S
C1243      C1244   1.400       .  A
C1243      C1248   1.403       .  A
C1243      H1250   1.084       .  S
C1244      C1245   1.416       .  A
C1245      C1246   1.404       .  A
C1245      N1252   1.436       .  S
C1246      C1247   1.405       .  A
C1246      H1251   1.084       .  S
C1247      C1248   1.417       .  A
C1248      N1249   1.438       .  S
N1249      H1253   1.046       .  S
N1249      H1254   1.045       .  S
N1252      H1255   1.042       .  S
N1252      H1256   1.045       .  S
C1257      C1258   1.398       .  A
C1257      C1262   1.397       .  A
C1257      H1264   1.079       .  S
C1258      C1259   1.410       .  A
C1259      C1260   1.411       .  A
C1259      N1266   1.431       .  S
C1260      C1261   1.407       .  A
C1260      H1265   1.083       .  S
C1261      C1262   1.425       .  A
C1262      N1263   1.435       .  S
N1263      H1267   1.044       .  S
N1263      H1268   1.045       .  S
N1266      H1269   1.045       .  S
N1266      H1270   1.046       .  S
C1271      C1272   1.400       .  A
C1271      C1276   1.405       .  A
C1271      H1278   1.082       .  S
C1272      C1273   1.412       .  A
C1273      C1274   1.408       .  A
C1273      N1280   1.435       .  S
C1274      C1275   1.404       .  A
C1274      H1279   1.083       .  S
C1275      C1276   1.416       .  A
C1276      N1277   1.438       .  S
N1277      H1281   1.046       .  S
N1277      H1282   1.045       .  S
N1280      H1283   1.041       .  S
N1280      H1284   1.046       .  S
C1285      C1286   1.403       .  A
C1285      C1290   1.402       .  A
C1285      H1292   1.084       .  S
C1286      C1287   1.414       .  A
C1287      C1288   1.407       .  A
C1287      N1294   1.424       .  S
C1288      C1289   1.398       .  A
C1288      H1293   1.084       .  S
C1289      C1290   1.415       .  A
C1290      N1291   1.433       .  S
N1291      H1295   1.045       .  S
N1291      H1296   1.046       .  S
N1294      H1297   1.046       .  S
N1294      H1298   1.045       .  S
C1299      C1300   1.406       .  A
C1299      C1304   1.407       .  A
C1299      H1306   1.082       .  S
C1300      C1301   1.405       .  A
C1301      C1302   1.400       .  A
C1301      N1308   1.437       .  S
C1302      C1303   1.411       .  A
C1302      H1307   1.083       .  S
C1303      C1304   1.419       .  A
C1304      N1305   1.432       .  S
N1305      H1309   1.044       .  S
N1305      H1310   1.046       .  S
N1308      H1311   1.043       .  S
N1308      H1312   1.045       .  S
C1313      C1314   1.404       .  A
C1313      C1318   1.396       .  A
C1313      H1320   1.084       .  S
C1314      C1315   1.414       .  A
C1315      C1316   1.410       .  A
C1315      N1322   1.432       .  S
C1316      C1317   1.406       .  A
C1316      H1321   1.082       .  S
C1317      C1318   1.420       .  A
C1318      N1319   1.438       .  S
N1319      H1323   1.046       .  S
N1319      H1324   1.039       .  S
N1322      H1325   1.045       .  S
N1322      H1326   1.046       .  S
C1327      C1328   1.407       .  A
C1327      C1332   1.397       .  A
C1327      H1334   1.084       .  S
C1328      C1329   1.419       .  A
C1329      C1330   1.403       .  A
C1329      N1336   1.432       .  S
C1330      C1331   1.405       .  A
C1330      H1335   1.082       .  S
C1331      C1332   1.414       .  A
C1332      N1333   1.429       .  S
N1333      H1337   1.042       .  S
N1333      H1338   1.043       .  S
N1336      H1339   1.045       .  S
N1336      H1340   1.044       .  S
C1341      C1342   1.405       .  A
C1341      C1346   1.403       .  A
C1341      H1348   1.084       .  S
C1342      C1343   1.418       .  A
C1343      C1344   1.402       .  A
C1343      N1350   1.439       .  S
C1344      C1345   1.403       .  A
C1344      H1349   1.079       .  S
C1345      C1346   1.416       .  A
C1346      N1347   1.437       .  S
N1347      H1351   1.045       .  S
N1347      H1352   1.043       .  S
N1350      H1353   1.044       .  S
N1350      H1354   1.046       .  S
C1355      C1356   1.405       .  A
C1355      C1360   1.411       .  A
C1355      H1362   1.084       .  S
C1356      C1357   1.411       .  A
C1357      C1358   1.399       .  A
C1357      N1364   1.433       .  S
C1358      C1359   1.402       .  A
C1358      H1363   1.081       .  S
C1359      C1360   1.416       .  A
C1360      N1361   1.437       .  S
N1361      H1365   1.045       .  S
N1361      H1366   1.040       .  S
N1364      H1367   1.045       .  S
N1364      H1368   1.046       .  S
C1369      C1370   1.404       .  A
C1369      C1374   1.409       .  A
C1369      H1376   1.082       .  S
C1370      C1371   1.407       .  A
C1371      C1372   1.398       .  A
C1371      N1378   1.432       .  S
C1372      C1373   1.407       .  A
C1372      H1377   1.084       .  S
C1373      C1374   1.414       .  A
C1374      N1375   1.432       .  S
N1375      H1379   1.046       .  S
N1375      H1380   1.045       .  S
N1378      H1381   1.046       .  S
N1378      H1382   1.045       .  S
C1383      C1384   1.403       .  A
C1383      C1388   1.408       .  A
C1383      H1390   1.083       .  S
C1384      C1385   1.416       .  A
C1385      C1386   1.400       .  A
C1385      N1392   1.437       .  S
C1386      C1387   1.404       .  A
C1386      H1391   1.084       .  S
C1387      C1388   1.414       .  A
C1388      N1389   1.437       .  S
N1389      H1393   1.046       .  S
N1389      H1394   1.045       .  S
N1392      H1395   1.042       .  S
N1392      H1396   1.046       .  S
C1397      C1398   1.401       .  A
C1397      C1402   1.401       .  A
C1397      H1404   1.083       .  S
C1398      C1399   1.405       .  A
C1399      C1400   1.404       .  A
C1399      N1406   1.430       .  S
C1400      C1401   1.409       .  A
C1400      H1405   1.084       .  S
C1401      C1402   1.420       .  A
C1402      N1403   1.432       .  S
N1403      H1407   1.044       .  S
N1403      H1408   1.045       .  S
N1406      H1409   1.045       .  S
N1406      H1410   1.045       .  S
C1411      C1412   1.406       .  A
C1411      C1416   1.404       .  A
C1411      H1418   1.084       .  S
C1412      C1413   1.415       .  A
C1413      C1414   1.405       .  A
C1413      N1420   1.432       .  S
C1414      C1415   1.401       .  A
C1414      H1419   1.083       .  S
C1415      C1416   1.407       .  A
C1416      N1417   1.429       .  S
N1417      H1421   1.046       .  S
N1417      H1422   1.045       .  S
N1420      H1423   1.046       .  S
N1420      H1424   1.045       .  S
C1425      C1426   1.402       .  A
C1425      C1430   1.404       .  A
C1425      H1432   1.084       .  S
C1426      C1427   1.410       .  A
C1427      C1428   1.407       .  A
C1427      N1434   1.435       .  S
C1428      C1429   1.407       .  A
C1428      H1433   1.084       .  S
C1429      C1430   1.414       .  A
C1430      N1431   1.432       .  S
N1431      H1435   1.045       .  S
N1431      H1436   1.046       .  S
N1434      H1437   1.043       .  S
N1434      H1438   1.045       .  S
C1439      C1440   1.404       .  A
C1439      C1444   1.413       .  A
C1439      H1446   1.083       .  S
C1440      C1441   1.406       .  A
C1441      C1442   1.403       .  A
C1441      N1448   1.432       .  S
C1442      C1443   1.408       .  A
C1442      H1447   1.084       .  S
C1443      C1444   1.418       .  A
C1444      N1445   1.437       .  S
N1445      H1449   1.046       .  S
N1445      H1450   1.045       .  S
N1448      H1451   1.045       .  S
N1448      H1452   1.046       .  S
C1453      C1454   1.400       .  A
C1453      C1458   1.397       .  A
C1453      H1460   1.084       .  S
C1454      C1455   1.417       .  A
C1455      C1456   1.406       .  A
C1455      N1462   1.434       .  S
C1456      C1457   1.406       .  A
C1456      H1461   1.084       .  S
C1457      C1458   1.425       .  A
C1458      N1459   1.434       .  S
N1459      H1463   1.044       .  S
N1459      H1464   1.045       .  S
N1462      H1465   1.040       .  S
N1462      H1466   1.046       .  S
C1467      C1468   1.407       .  A
C1467      C1472   1.396       .  A
C1467      H1474   1.085       .  S
C1468      C1469   1.417       .  A
C1469      C1470   1.408       .  A
C1469      N1476   1.431       .  S
C1470      C1471   1.409       .  A
C1470      H1475   1.083       .  S
C1471      C1472   1.416       .  A
C1472      N1473   1.436       .  S
N1473      H1477   1.046       .  S
N1473      H1478   1.035       .  S
N1476      H1479   1.045       .  S
N1476      H1480   1.044       .  S
C1481      C1482   1.403       .  A
C1481      C1486   1.402       .  A
C1481      H1488   1.084       .  S
C1482      C1483   1.416       .  A
C1483      C1484   1.404       .  A
C1483      N1490   1.438       .  S
C1484      C1485   1.402       .  A
C1484      H1489   1.084       .  S
C1485      C1486   1.418       .  A
C1486      N1487   1.435       .  S
N1487      H1491   1.045       .  S
N1487      H1492   1.037       .  S
N1490      H1493   1.045       .  S
N1490      H1494   1.046       .  S
C1495      C1496   1.404       .  A
C1495      C1500   1.401       .  A
C1495      H1502   1.084       .  S
C1496      C1497   1.420       .  A
C1497      C1498   1.407       .  A
C1497      N1504   1.437       .  S
C1498      C1499   1.403       .  A
C1498      H1503   1.084       .  S
C1499      C1500   1.409       .  A
C1500      N1501   1.432       .  S
N1501      H1505   1.045       .  S
N1501      H1506   1.046       .  S
N1504      H1507   1.045       .  S
N1504      H1508   1.046       .  S
C1509      C1510   1.406       .  A
C1509      C1514   1.404       .  A
C1509      H1516   1.084       .  S
C1510      C1511   1.413       .  A
C1511      C1512   1.402       .  A
C1511      N1518   1.438       .  S
C1512      C1513   1.401       .  A
C1512      H1517   1.084       .  S
C1513      C1514   1.407       .  A
C1514      N1515   1.431       .  S
N1515      H1519   1.046       .  S
N1515      H1520   1.045       .  S
N1518      H1521   1.045       .  S
N1518      H1522   1.046       .  S
C1523      C1524   1.405       .  A
C1523      C1528   1.406       .  A
C1523      H1530   1.084       .  S
C1524      C1525   1.418       .  A
C1525      C1526   1.404       .  A
C1525      N1532   1.437       .  S
C1526      C1527   1.401       .  A
C1526      H1531   1.082       .  S
C1527      C1528   1.409       .  A
C1528      N1529   1.437       .  S
N1529      H1533   1.046       .  S
N1529      H1534   1.045       .  S
N1532      H1535   1.045       .  S
N1532      H1536   1.046       .  S
C1537      C1538   1.404       .  A
C1537      C1542   1.400       .  A
C1537      H1544   1.084       .  S
C1538      C1539   1.419       .  A
C1539      C1540   1.406       .  A
C1539      N1546   1.436       .  S
C1540      C1541   1.405       .  A
C1540      H1545   1.083       .  S
C1541      C1542   1.408       .  A
C1542      N1543   1.430       .  S
N1543      H1547   1.045       .  S
N1543      H1548   1.046       .  S
N1546      H1549   1.044       .  S
N1546      H1550   1.046       .  S
C1551      C1552   1.404       .  A
C1551      C1556   1.401       .  A
C1551      H1558   1.084       .  S
C1552      C1553   1.419       .  A
C1553      C1554   1.407       .  A
C1553      N1560   1.436       .  S
C1554      C1555   1.403       .  A
C1554      H1559   1.084       .  S
C1555      C1556   1.407       .  A
C1556      N1557   1.431       .  S
N1557      H1561   1.045       .  S
N1557      H1562   1.046       .  S
N1560      H1563   1.045       .  S
N1560      H1564   1.045       .  S
C1565      C1566   1.403       .  A
C1565      C1570   1.409       .  A
C1565      H1572   1.083       .  S
C1566      C1567   1.410       .  A
C1567      C1568   1.405       .  A
C1567      N1574   1.435       .  S
C1568      C1569   1.406       .  A
C1568      H1573   1.084       .  S
C1569      C1570   1.416       .  A
C1570      N1571   1.437       .  S
N1571      H1575   1.046       .  S
N1571      H1576   1.045       .  S
N1574      H1577   1.041       .  S
N1574      H1578   1.046       .  S
C1579      C1580   1.403       .  A
C1579      C1584   1.401       .  A
C1579      H1586   1.082       .  S
C1580      C1581   1.411       .  A
C1581      C1582   1.404       .  A
C1581      N1588   1.428       .  S
C1582      C1583   1.404       .  A
C1582      H1587   1.084       .  S
C1583      C1584   1.420       .  A
C1584      N1585   1.432       .  S
N1585      H1589   1.044       .  S
N1585      H1590   1.045       .  S
N1588      H1591   1.046       .  S
N1588      H1592   1.045       .  S
C1593      C1594   1.403       .  A
C1593      C1598   1.407       .  A
C1593      H1600   1.079       .  S
C1594      C1595   1.407       .  A
C1595      C1596   1.405       .  A
C1595      N1602   1.432       .  S
C1596      C1597   1.406       .  A
C1596      H1601   1.084       .  S
C1597      C1598   1.414       .  A
C1598      N1599   1.438       .  S
N1599      H1603   1.046       .  S
N1599      H1604   1.045       .  S
N1602      H1605   1.046       .  S
N1602      H1606   1.045       .  S
C1607      C1608   1.406       .  A
C1607      C1612   1.412       .  A
C1607      H1614   1.083       .  S
C1608      C1609   1.414       .  A
C1609      C1610   1.395       .  A
C1609      N1616   1.438       .  S
C1610      C1611   1.407       .  A
C1610      H1615   1.084       .  S
C1611      C1612   1.414       .  A
C1612      N1613   1.437       .  S
N1613      H1617   1.046       .  S
N1613      H1618   1.045       .  S
N1616      H1619   1.041       .  S
N1616      H1620   1.046       .  S
C1621      C1622   1.403       .  A
C1621      C1626   1.408       .  A
C1621      H1628   1.084       .  S
C1622      C1623   1.408       .  A
C1623      C1624   1.404       .  A
C1623      N1630   1.430       .  S
C1624      C1625   1.405       .  A
C1624      H1629   1.084       .  S
C1625      C1626   1.421       .  A
C1626      N1627   1.438       .  S
N1627      H1631   1.046       .  S
N1627      H1632   1.044       .  S
N1630      H1633   1.046       .  S
N1630      H1634   1.045       .  S
C1635      C1636   1.404       .  A
C1635      C1640   1.400       .  A
C1635      H1642   1.084       .  S
C1636      C1637   1.416       .  A
C1637      C1638   1.402       .  A
C1637      N1644   1.436       .  S
C1638      C1639   1.406       .  A
C1638      H1643   1.084       .  S
C1639      C1640   1.417       .  A
C1640      N1641   1.432       .  S
N1641      H1645   1.044       .  S
N1641      H1646   1.045       .  S
N1644      H1647   1.039       .  S
N1644      H1648   1.045       .  S
C1649      C1650   1.404       .  A
C1649      C1654   1.412       .  A
C1649      H1656   1.083       .  S
C1650      C1651   1.410       .  A
C1651      C1652   1.402       .  A
C1651      N1658   1.430       .  S
C1652      C1653   1.403       .  A
C1652      H1657   1.084       .  S
C1653      C1654   1.417       .  A
C1654      N1655   1.437       .  S
N1655      H1659   1.046       .  S
N1655      H1660   1.045       .  S
N1658      H1661   1.046       .  S
N1658      H1662   1.046       .  S
C1663      C1664   1.402       .  A
C1663      C1668   1.400       .  A
C1663      H1670   1.084       .  S
C1664      C1665   1.404       .  A
C1665      C1666   1.405       .  A
C1665      N1672   1.431       .  S
C1666      C1667   1.409       .  A
C1666      H1671   1.084       .  S
C1667      C1668   1.419       .  A
C1668      N1669   1.432       .  S
N1669      H1673   1.044       .  S
N1669      H1674   1.045       .  S
N1672      H1675   1.045       .  S
N1672      H1676   1.045       .  S
C1677      C1678   1.402       .  A
C1677      C1682   1.409       .  A
C1677      H1684   1.081       .  S
C1678      C1679   1.407       .  A
C1679      C1680   1.400       .  A
C1679      N1686   1.428       .  S
C1680      C1681   1.404       .  A
C1680      H1685   1.084       .  S
C1681      C1682   1.419       .  A
C1682      N1683   1.437       .  S
N1683      H1687   1.046       .  S
N1683      H1688   1.045       .  S
N1686      H1689   1.046       .  S
N1686      H1690   1.046       .  S
C1691      C1692   1.400       .  A
C1691      C1696   1.400       .  A
C1691      H1698   1.084       .  S
C1692      C1693   1.416       .  A
C1693      C1694   1.405       .  A
C1693      N1700   1.436       .  S
C1694      C1695   1.406       .  A
C1694      H1699   1.084       .  S
C1695      C1696   1.424       .  A
C1696      N1697   1.434       .  S
N1697      H1701   1.044       .  S
N1697      H1702   1.045       .  S
N1700      H1703   1.041       .  S
N1700      H1704   1.046       .  S
C1705      C1706   1.407       .  A
C1705      C1710   1.407       .  A
C1705      H1712   1.084       .  S
C1706      C1707   1.412       .  A
C1707      C1708   1.405       .  A
C1707      N1714   1.432       .  S
C1708      C1709   1.403       .  A
C1708      H1713   1.081       .  S
C1709      C1710   1.409       .  A
C1710      N1711   1.435       .  S
N1711      H1715   1.045       .  S
N1711      H1716   1.043       .  S
N1714      H1717   1.045       .  S
N1714      H1718   1.046       .  S
C1719      C1720   1.402       .  A
C1719      C1724   1.406       .  A
C1719      H1726   1.082       .  S
C1720      C1721   1.411       .  A
C1721      C1722   1.409       .  A
C1721      N1728   1.435       .  S
C1722      C1723   1.407       .  A
C1722      H1727   1.084       .  S
C1723      C1724   1.415       .  A
C1724      N1725   1.438       .  S
N1725      H1729   1.046       .  S
N1725      H1730   1.045       .  S
N1728      H1731   1.042       .  S
N1728      H1732   1.046       .  S
C1733      C1734   1.403       .  A
C1733      C1738   1.405       .  A
C1733      H1740   1.084       .  S
C1734      C1735   1.411       .  A
C1735      C1736   1.404       .  A
C1735      N1742   1.438       .  S
C1736      C1737   1.404       .  A
C1736      H1741   1.084       .  S
C1737      C1738   1.418       .  A
C1738      N1739   1.437       .  S
N1739      H1743   1.046       .  S
N1739      H1744   1.045       .  S
N1742      H1745   1.043       .  S
N1742      H1746   1.045       .  S
C1747      C1748   1.411       .  A
C1747      C1752   1.399       .  A
C1747      H1754   1.083       .  S
C1748      C1749   1.419       .  A
C1749      C1750   1.410       .  A
C1749      N1756   1.431       .  S
C1750      C1751   1.408       .  A
C1750      H1755   1.084       .  S
C1751      C1752   1.408       .  A
C1752      N1753   1.438       .  S
N1753      H1757   1.045       .  S
N1753      H1758   1.039       .  S
N1756      H1759   1.045       .  S
N1756      H1760   1.044       .  S
C1761      C1762   1.408       .  A
C1761      C1766   1.401       .  A
C1761      H1768   1.084       .  S
C1762      C1763   1.419       .  A
C1763      C1764   1.402       .  A
C1763      N1770   1.432       .  S
C1764      C1765   1.404       .  A
C1764      H1769   1.081       .  S
C1765      C1766   1.416       .  A
C1766      N1767   1.437       .  S
N1767      H1771   1.045       .  S
N1767      H1772   1.041       .  S
N1770      H1773   1.045       .  S
N1770      H1774   1.044       .  S
C1775      C1776   1.406       .  A
C1775      C1780   1.411       .  A
C1775      H1782   1.083       .  S
C1776      C1777   1.402       .  A
C1777      C1778   1.397       .  A
C1777      N1784   1.432       .  S
C1778      C1779   1.411       .  A
C1778      H1783   1.084       .  S
C1779      C1780   1.420       .  A
C1780      N1781   1.437       .  S
N1781      H1785   1.046       .  S
N1781      H1786   1.043       .  S
N1784      H1787   1.045       .  S
N1784      H1788   1.046       .  S
C1789      C1790   1.403       .  A
C1789      C1794   1.399       .  A
C1789      H1796   1.084       .  S
C1790      C1791   1.420       .  A
C1791      C1792   1.407       .  A
C1791      N1798   1.438       .  S
C1792      C1793   1.403       .  A
C1792      H1797   1.084       .  S
C1793      C1794   1.408       .  A
C1794      N1795   1.433       .  S
N1795      H1799   1.046       .  S
N1795      H1800   1.045       .  S
N1798      H1801   1.045       .  S
N1798      H1802   1.046       .  S
C1803      C1804   1.407       .  A
C1803      C1808   1.399       .  A
C1803      H1810   1.084       .  S
C1804      C1805   1.418       .  A
C1805      C1806   1.401       .  A
C1805      N1812   1.432       .  S
C1806      C1807   1.404       .  A
C1806      H1811   1.081       .  S
C1807      C1808   1.415       .  A
C1808      N1809   1.438       .  S
N1809      H1813   1.046       .  S
N1809      H1814   1.041       .  S
N1812      H1815   1.045       .  S
N1812      H1816   1.044       .  S
C1817      C1818   1.405       .  A
C1817      C1822   1.404       .  A
C1817      H1824   1.084       .  S
C1818      C1819   1.419       .  A
C1819      C1820   1.404       .  A
C1819      N1826   1.438       .  S
C1820      C1821   1.401       .  A
C1820      H1825   1.081       .  S
C1821      C1822   1.407       .  A
C1822      N1823   1.432       .  S
N1823      H1827   1.046       .  S
N1823      H1828   1.045       .  S
N1826      H1829   1.045       .  S
N1826      H1830   1.046       .  S
C1831      C1832   1.401       .  A
C1831      C1836   1.403       .  A
C1831      H1838   1.084       .  S
C1832      C1833   1.409       .  A
C1833      C1834   1.405       .  A
C1833      N1840   1.437       .  S
C1834      C1835   1.405       .  A
C1834      H1839   1.084       .  S
C1835      C1836   1.419       .  A
C1836      N1837   1.437       .  S
N1837      H1841   1.046       .  S
N1837      H1842   1.045       .  S
N1840      H1843   1.045       .  S
N1840      H1844   1.045       .  S
C1845      C1846   1.407       .  A
C1845      C1850   1.403       .  A
C1845      H1852   1.084       .  S
C1846      C1847   1.421       .  A
C1847      C1848   1.401       .  A
C1847      N1854   1.432       .  S
C1848      C1849   1.401       .  A
C1848      H1853   1.082       .  S
C1849      C1850   1.409       .  A
C1850      N1851   1.437       .  S
N1851      H1855   1.046       .  S
N1851      H1856   1.042       .  S
N1854      H1857   1.045       .  S
N1854      H1858   1.044       .  S
C1859      C1860   1.405       .  A
C1859      C1864   1.403       .  A
C1859      H1866   1.084       .  S
C1860      C1861   1.419       .  A
C1861      C1862   1.406       .  A
C1861      N1868   1.438       .  S
C1862      C1863   1.402       .  A
C1862      H1867   1.081       .  S
C1863      C1864   1.407       .  A
C1864      N1865   1.431       .  S
N1865      H1869   1.046       .  S
N1865      H1870   1.045       .  S
N1868      H1871   1.044       .  S
N1868      H1872   1.046       .  S
C1873      C1874   1.407       .  A
C1873      C1878   1.405       .  A
C1873      H1880   1.084       .  S
C1874      C1875   1.420       .  A
C1875      C1876   1.400       .  A
C1875      N1882   1.432       .  S
C1876      C1877   1.402       .  A
C1876      H1881   1.084       .  S
C1877      C1878   1.416       .  A
C1878      N1879   1.436       .  S
N1879      H1883   1.045       .  S
N1879      H1884   1.040       .  S
N1882      H1885   1.045       .  S
N1882      H1886   1.044       .  S
C1887      C1888   1.405       .  A
C1887      C1892   1.407       .  A
C1887      H1894   1.083       .  S
C1888      C1889   1.406       .  A
C1889      C1890   1.398       .  A
C1889      N1896   1.431       .  S
C1890      C1891   1.407       .  A
C1890      H1895   1.084       .  S
C1891      C1892   1.421       .  A
C1892      N1893   1.432       .  S
N1893      H1897   1.044       .  S
N1893      H1898   1.045       .  S
N1896      H1899   1.045       .  S
N1896      H1900   1.045       .  S
C1901      C1902   1.403       .  A
C1901      C1906   1.401       .  A
C1901      H1908   1.084       .  S
C1902      C1903   1.408       .  A
C1903      C1904   1.404       .  A
C1903      N1910   1.428       .  S
C1904      C1905   1.405       .  A
C1904      H1909   1.084       .  S
C1905      C1906   1.419       .  A
C1906      N1907   1.432       .  S
N1907      H1911   1.045       .  S
N1907      H1912   1.043       .  S
N1910      H1913   1.045       .  S
N1910      H1914   1.046       .  S
C1915      C1916   1.403       .  A
C1915      C1920   1.407       .  A
C1915      H1922   1.084       .  S
C1916      C1917   1.408       .  A
C1917      C1918   1.400       .  A
C1917      N1924   1.431       .  S
C1918      C1919   1.403       .  A
C1918      H1923   1.084       .  S
C1919      C1920   1.419       .  A
C1920      N1921   1.437       .  S
N1921      H1925   1.046       .  S
N1921      H1926   1.045       .  S
N1924      H1927   1.045       .  S
N1924      H1928   1.046       .  S
C1929      C1930   1.404       .  A
C1929      C1934   1.401       .  A
C1929      H1936   1.079       .  S
C1930      C1931   1.417       .  A
C1931      C1932   1.399       .  A
C1931      N1938   1.428       .  S
C1932      C1933   1.404       .  A
C1932      H1937   1.084       .  S
C1933      C1934   1.418       .  A
C1934      N1935   1.432       .  S
N1935      H1939   1.045       .  S
N1935      H1940   1.044       .  S
N1938      H1941   1.041       .  S
N1938      H1942   1.040       .  S
C1943      C1944   1.403       .  A
C1943      C1948   1.406       .  A
C1943      H1950   1.078       .  S
C1944      C1945   1.415       .  A
C1945      C1946   1.409       .  A
C1945      N1952   1.434       .  S
C1946      C1947   1.405       .  A
C1946      H1951   1.084       .  S
C1947      C1948   1.414       .  A
C1948      N1949   1.438       .  S
N1949      H1953   1.046       .  S
N1949      H1954   1.045       .  S
N1952      H1955   1.042       .  S
N1952      H1956   1.046       .  S
C1957      C1958   1.407       .  A
C1957      C1962   1.407       .  A
C1957      H1964   1.081       .  S
C1958      C1959   1.415       .  A
C1959      C1960   1.397       .  A
C1959      N1966   1.437       .  S
C1960      C1961   1.408       .  A
C1960      H1965   1.084       .  S
C1961      C1962   1.419       .  A
C1962      N1963   1.432       .  S
N1963      H1967   1.044       .  S
N1963      H1968   1.045       .  S
N1966      H1969   1.041       .  S
N1966      H1970   1.046       .  S
C1971      C1972   1.408       .  A
C1971      C1976   1.415       .  A
C1971      H1978   1.081       .  S
C1972      C1973   1.415       .  A
C1973      C1974   1.394       .  A
C1973      N1980   1.439       .  S
C1974      C1975   1.408       .  A
C1974      H1979   1.084       .  S
C1975      C1976   1.416       .  A
C1976      N1977   1.437       .  S
N1977      H1981   1.046       .  S
N1977      H1982   1.045       .  S
N1980      H1983   1.040       .  S
N1980      H1984   1.046       .  S
C1985      C1986   1.401       .  A
C1985      C1990   1.398       .  A
C1985      H1992   1.082       .  S
C1986      C1987   1.411       .  A
C1987      C1988   1.408       .  A
C1987      N1994   1.436       .  S
C1988      C1989   1.407       .  A
C1988      H1993   1.084       .  S
C1989      C1990   1.419       .  A
C1990      N1991   1.432       .  S
N1991      H1995   1.043       .  S
N1991      H1996   1.045       .  S
N1994      H1997   1.041       .  S
N1994      H1998   1.046       .  S
C1999      C2000   1.403       .  A
C1999      C2004   1.408       .  A
C1999      H2006   1.082       .  S
C2000      C2001   1.410       .  A
C2001      C2002   1.406       .  A
C2001      N2008   1.435       .  S
C2002      C2003   1.406       .  A
C2002      H2007   1.084       .  S
C2003      C2004   1.417       .  A
C2004      N2005   1.437       .  S
N2005      H2009   1.046       .  S
N2005      H2010   1.045       .  S
N2008      H2011   1.042       .  S
N2008      H2012   1.045       .  S
C2013      C2014   1.406       .  A
C2013      C2018   1.405       .  A
C2013      H2020   1.084       .  S
C2014      C2015   1.413       .  A
C2015      C2016   1.403       .  A
C2015      N2022   1.432       .  S
C2016      C2017   1.403       .  A
C2016      H2021   1.081       .  S
C2017      C2018   1.410       .  A
C2018      N2019   1.430       .  S
N2019      H2023   1.045       .  S
N2019      H2024   1.046       .  S
N2022      H2025   1.045       .  S
N2022      H2026   1.046       .  S
C2027      C2028   1.402       .  A
C2027      C2032   1.406       .  A
C2027      H2034   1.082       .  S
C2028      C2029   1.411       .  A
C2029      C2030   1.408       .  A
C2029      N2036   1.436       .  S
C2030      C2031   1.406       .  A
C2030      H2035   1.084       .  S
C2031      C2032   1.416       .  A
C2032      N2033   1.438       .  S
N2033      H2037   1.046       .  S
N2033      H2038   1.045       .  S
N2036      H2039   1.041       .  S
N2036      H2040   1.046       .  S
C2041      C2042   1.408       .  A
C2041      C2046   1.402       .  A
C2041      H2048   1.084       .  S
C2042      C2043   1.421       .  A
C2043      C2044   1.402       .  A
C2043      N2050   1.432       .  S
C2044      C2045   1.403       .  A
C2044      H2049   1.082       .  S
C2045      C2046   1.415       .  A
C2046      N2047   1.436       .  S
N2047      H2051   1.045       .  S
N2047      H2052   1.041       .  S
N2050      H2053   1.045       .  S
N2050      H2054   1.044       .  S
C2055      C2056   1.401       .  A
C2055      C2060   1.401       .  A
C2055      H2062   1.083       .  S
C2056      C2057   1.409       .  A
C2057      C2058   1.406       .  A
C2057      N2064   1.430       .  S
C2058      C2059   1.406       .  A
C2058      H2063   1.084       .  S
C2059      C2060   1.422       .  A
C2060      N2061   1.432       .  S
N2061      H2065   1.044       .  S
N2061      H2066   1.045       .  S
N2064      H2067   1.046       .  S
N2064      H2068   1.045       .  S
C2069      C2070   1.400       .  A
C2069      C2074   1.398       .  A
C2069      H2076   1.083       .  S
C2070      C2071   1.409       .  A
C2071      C2072   1.410       .  A
C2071      N2078   1.435       .  S
C2072      C2073   1.409       .  A
C2072      H2077   1.083       .  S
C2073      C2074   1.422       .  A
C2074      N2075   1.434       .  S
N2075      H2079   1.044       .  S
N2075      H2080   1.046       .  S
N2078      H2081   1.045       .  S
N2078      H2082   1.045       .  S
C2083      C2084   1.406       .  A
C2083      C2088   1.407       .  A
C2083      H2090   1.084       .  S
C2084      C2085   1.415       .  A
C2085      C2086   1.402       .  A
C2085      N2092   1.433       .  S
C2086      C2087   1.401       .  A
C2086      H2091   1.082       .  S
C2087      C2088   1.418       .  A
C2088      N2089   1.436       .  S
N2089      H2093   1.046       .  S
N2089      H2094   1.042       .  S
N2092      H2095   1.045       .  S
N2092      H2096   1.046       .  S
