geometry optimzed in LAMMPS
_audit_creation_date              2020-12-01 
_audit_creation_method            'lammps2cif' 
_symmetry_space_group_name_H-M    'P1' 
_symmetry_Int_Tables_number       1 
_symmetry_cell_setting            triclinic 
loop_ 
_symmetry_equiv_pos_as_xyz 
  x,y,z 
_cell_length_a                    25.65555222 
_cell_length_b                    26.41912377264636 
_cell_length_c                    38.04248505291549 
_cell_angle_alpha                 89.70805965329193 
_cell_angle_beta                  90.00659549724186 
_cell_angle_gamma                 120.42201673455935 
loop_ 
_atom_site_label 
_atom_site_type_symbol 
_atom_site_fract_x 
_atom_site_fract_y 
_atom_site_fract_z 
_atom_site_charge 
N1          N  0.50713855  0.82725281  0.98478934    -0.03300
C2          C  0.47094251  0.81900108  0.01336120    -0.00700
C3          C  0.41487946  0.80791118  0.00216785    -0.23600
C4          C  0.42509650  0.81972734  0.46818245    -0.23800
C5          C  0.48124310  0.83075118  0.45708531    -0.00800
H6          H  0.37886307  0.80481615  0.01857981     0.13000
H7          H  0.39031884  0.81989816  0.45214986     0.13000
N8          N  0.19782707  0.89790474  0.48549286    -0.03300
C9          C  0.20335748  0.89775934  0.01365721    -0.00700
C10         C  0.19352084  0.94247362  0.00316268    -0.23600
C11         C  0.25206894  0.99250438  0.46646622    -0.23800
C12         C  0.22249001  0.93433436  0.45680454    -0.00800
H13         H  0.19272669  0.97501269  0.01997855     0.13000
H14         H  0.27931624  0.03009843  0.44969224     0.13000
O15         O  0.31746665  0.95356046  0.29370030    -0.75100
O16         O  0.39372775  0.99775086  0.33369777    -0.54000
C17         C  0.33787896  0.96455574  0.32550122     0.78600
O18         O  0.50192724  0.91646972  0.17719672    -0.59700
O19         O  0.50014124  0.98080198  0.13796933    -0.52700
C20         C  0.50220648  0.93428081  0.14564265     0.70600
O21         O  0.49869941  0.91878342  0.29454530    -0.74300
O22         O  0.49772707  0.98343714  0.33380214    -0.54800
C23         C  0.49940466  0.93708196  0.32583014     0.76700
O24         O  0.32098742  0.95272695  0.17301702    -0.59400
O25         O  0.39951148  0.00214723  0.13487859    -0.52500
C26         C  0.34371037  0.96581435  0.14163482     0.73200
Zr27       Zr  0.35951254  0.98242368  0.23367636     2.54700
O28         O  0.27935567  0.87980457  0.23409143    -0.80000
O29         O  0.28428467  0.01265951  0.23124001    -0.93400
Zr30       Zr  0.50052537  0.95477332  0.23542615     2.64700
O31         O  0.43468263  0.84847759  0.23466043    -0.98300
O32         O  0.59171133  0.94809531  0.23735837    -0.80400
O33         O  0.42827705  0.96713795  0.26780762    -0.83800
O34         O  0.42993050  0.96703804  0.20169962    -2.18500
O35         O  0.47448739  0.18912364  0.17272823    -0.67100
O36         O  0.48156318  0.12676656  0.13449744    -0.51700
C37         C  0.47799955  0.17247689  0.14131038     0.71600
O38         O  0.64931788  0.17123387  0.29320674    -0.60100
O39         O  0.57671175  0.11534799  0.33361130    -0.52000
C40         C  0.62924383  0.15777136  0.32484248     0.73400
O41         O  0.65555254  0.16673513  0.17718044    -0.71400
O42         O  0.58268044  0.11371195  0.13659305    -0.50100
C43         C  0.63618540  0.15400586  0.14543551     0.74800
O44         O  0.47555781  0.19215910  0.29403458    -0.66800
O45         O  0.47706187  0.12803715  0.33385572    -0.54000
C46         C  0.47542342  0.17456594  0.32586577     0.73200
Zr47       Zr  0.47523681  0.15642828  0.23387781     2.77500
O48         O  0.55345353  0.25971317  0.23198381    -0.97500
O49         O  0.39506701  0.18010780  0.23408697    -0.78300
Zr50       Zr  0.61457796  0.12730880  0.23543592     2.70100
O51         O  0.70933571  0.22079301  0.23512878    -0.79600
O52         O  0.67994510  0.08548150  0.23872306    -0.98700
Zr53       Zr  0.48570967  0.05485328  0.30055729     2.21500
Zr54       Zr  0.48973601  0.05500189  0.16918765     2.11100
O55         O  0.54613044  0.14295765  0.20174785    -2.47400
O56         O  0.54457717  0.14254121  0.26781423    -0.79400
O57         O  0.41760787  0.06963614  0.20009249    -0.71600
O58         O  0.55804873  0.04089402  0.26963490    -2.32500
O59         O  0.41529838  0.06930498  0.26749658    -2.28700
O60         O  0.56067223  0.04091768  0.20122438    -0.73300
H61         H  0.40851682  0.93361025  0.18643683     0.78700
H62         H  0.58450581  0.03616094  0.28566198     0.79700
H63         H  0.56756941  0.17690792  0.18668880     0.82000
H64         H  0.38856268  0.07455030  0.28296549     0.79600
H65         H  0.57832650  0.90739347  0.23004826     0.42600
H66         H  0.71447910  0.11083439  0.22313628     0.41600
H67         H  0.69710618  0.25074042  0.23692607     0.41300
H68         H  0.53491871  0.28046851  0.24333819     0.39200
H69         H  0.36292972  0.14957780  0.21925081     0.47700
H70         H  0.29264013  0.03821307  0.25192183     0.37100
H71         H  0.29639771  0.85918448  0.24734171     0.43200
H72         H  0.40143068  0.84039871  0.25112583     0.39600
H73         H  0.58438262  0.26308752  0.24889875     0.44600
H74         H  0.24563702  0.97656483  0.23696817     0.43300
H75         H  0.45787084  0.83279945  0.24663398     0.43400
H76         H  0.69699322  0.09481243  0.26274805     0.43800
N77         N  0.47608985  0.29278092  0.48214429    -0.03300
C78         C  0.51241070  0.30788598  0.45293604    -0.00700
C79         C  0.57195848  0.33213188  0.46351162    -0.23600
C80         C  0.57199762  0.32744696  0.49943279    -0.23800
C81         C  0.51249449  0.29977280  0.51019991    -0.00800
H82         H  0.61045931  0.34343940  0.44675284     0.13000
H83         H  0.62070199  0.33964940  0.01523782     0.13000
N84         N  0.74735783  0.27051800  0.48421143    -0.03300
C85         C  0.71186905  0.26569315  0.45586032    -0.00700
C86         C  0.65792860  0.25994776  0.46704060    -0.23600
C87         C  0.65781792  0.25375459  0.00480755    -0.23800
C88         C  0.71352166  0.26238509  0.01447559    -0.00800
H89         H  0.61957973  0.25102202  0.45077704     0.13000
H90         H  0.61934684  0.24119800  0.02190146     0.13000
O91         O  0.10861137  0.50985117  0.29602700    -0.75100
O92         O  0.06287308  0.53883971  0.33610530    -0.54000
C93         C  0.09582080  0.51684051  0.32762504     0.78600
O94         O  0.13159061  0.72707723  0.17839142    -0.59700
O95         O  0.07415524  0.65499056  0.13925510    -0.52700
C96         C  0.11584202  0.70728076  0.14697182     0.70600
O97         O  0.11613272  0.72896709  0.29715496    -0.74300
O98         O  0.06484399  0.65477145  0.33684862    -0.54800
C99         C  0.09960267  0.70926663  0.32879437     0.76700
O100        O  0.10722057  0.50652407  0.17770980    -0.59400
O101        O  0.06470963  0.53943292  0.13777457    -0.52500
C102        C  0.09641315  0.51604104  0.14601466     0.73200
Zr103      Zr  0.08555172  0.52843838  0.23674399     2.54700
O104        O  0.19564898  0.58332964  0.23462437    -0.80000
O105        O  0.08267136  0.43474490  0.23807524    -0.93400
Zr106      Zr  0.09931211  0.68621167  0.23767256     2.64700
O107        O  0.20757275  0.72528271  0.24383347    -0.98300
O108        O  0.11546700  0.78519850  0.23411443    -0.80400
O109        O  0.09477397  0.60771103  0.27136150    -0.83800
O110        O  0.09575263  0.60902667  0.20334412    -2.18500
O111        O  0.88447105  0.40877070  0.17545580    -0.67100
O112        O  0.93699400  0.48303688  0.13609158    -0.51700
C113        C  0.89901646  0.42906945  0.14366429     0.71600
O114        O  0.89389597  0.62722406  0.29585902    -0.60100
O115        O  0.93654499  0.59224314  0.33381893    -0.52000
C116        C  0.90580642  0.61709832  0.32741128     0.73400
O117        O  0.89551547  0.62572650  0.17391768    -0.71400
O118        O  0.94735619  0.60009819  0.13658460    -0.50100
C119        C  0.91139487  0.61946490  0.14261177     0.74800
O120        O  0.87810384  0.41046508  0.29664929    -0.66800
O121        O  0.93291520  0.48235217  0.33652400    -0.54000
C122        C  0.89300740  0.42950282  0.32851855     0.73200
Zr123      Zr  0.90514790  0.45055583  0.23580544     2.77500
O124        O  0.79730129  0.41624568  0.23352266    -0.97500
O125        O  0.88266578  0.34926891  0.23724419    -0.78300
Zr126      Zr  0.91785227  0.60870766  0.23529056     2.70100
O127        O  0.80826016  0.56291653  0.23515168    -0.79600
O128        O  0.93312556  0.70751861  0.23583899    -0.98700
Zr129      Zr  0.00141467  0.56738726  0.30234007     2.21500
Zr130      Zr  0.00374578  0.56817885  0.17109717     2.11100
O131        O  0.90991898  0.52875280  0.20174833    -2.47400
O132        O  0.90957872  0.52848956  0.26947391    -0.79400
O133        O  0.99662377  0.49742565  0.20793831    -0.71600
O134        O  0.00724651  0.64681733  0.26934393    -2.32500
O135        O  0.99463022  0.48717130  0.26994085    -2.28700
O136        O  0.00989116  0.64839272  0.20285883    -0.73300
H137        H  0.13054162  0.62386179  0.18802463     0.78700
H138        H  0.00799806  0.67651036  0.28434039     0.79700
H139        H  0.87632197  0.51405745  0.18562513     0.82000
H140        H  0.99204325  0.45665917  0.28520175     0.79600
H141        H  0.07552258  0.78043443  0.23970112     0.42600
H142        H  0.96199804  0.72839428  0.21643532     0.41600
H143        H  0.79544845  0.54219230  0.21238535     0.41300
H144        H  0.78849070  0.41706134  0.20824939     0.39200
H145        H  0.91761281  0.35096531  0.24943405     0.42300
H146        H  0.05290816  0.41141863  0.25664149     0.37100
H147        H  0.20843932  0.59278963  0.25943423     0.43200
H148        H  0.21103883  0.69692435  0.25933421     0.39600
H149        H  0.77747634  0.37393320  0.23945052     0.44600
H150        H  0.12220368  0.44383580  0.24794538     0.43300
H151        H  0.22092498  0.71980485  0.22046964     0.43400
H152        H  0.89432325  0.70283093  0.22760113     0.43800
N153        N  0.15306522  0.44594131  0.98463955    -0.03300
C154        C  0.11740567  0.43919544  0.01332735    -0.00700
C155        C  0.06068540  0.42727000  0.00328718    -0.23600
C156        C  0.05358736  0.40074819  0.46955308    -0.23800
C157        C  0.11116017  0.42141372  0.45676269    -0.00800
H158        H  0.02553245  0.42481475  0.02022124     0.13000
H159        H  0.01447561  0.39315809  0.45458062     0.13000
N160        N  0.81317436  0.29340832  0.98479704    -0.03300
C161        C  0.84984679  0.30098675  0.01316868    -0.00700
C162        C  0.90395439  0.30762183  0.00145687    -0.23600
C163        C  0.89527521  0.29158552  0.46564999    -0.23800
C164        C  0.84377137  0.29156410  0.45519176    -0.00800
H165        H  0.94343116  0.31896729  0.01724116     0.13000
H166        H  0.93238129  0.29836286  0.44896410     0.13000
N167        N  0.80294819  0.64875330  0.48261242    -0.03300
C168        C  0.83749122  0.67998735  0.01063644    -0.00700
C169        C  0.87075375  0.73790512  0.00006427    -0.23600
C170        C  0.86395863  0.74072484  0.46344399    -0.23800
C171        C  0.82399987  0.68357662  0.45316696    -0.00800
H172        H  0.90354627  0.77431327  0.01566516     0.13000
H173        H  0.89309650  0.77682982  0.44615868     0.13000
N174        N  0.14144638  0.84309641  0.48480388    -0.03300
C175        C  0.21397816  0.78568633  0.01110241    -0.00700
C176        C  0.22760047  0.74431012  0.99965047    -0.23600
C177        C  0.04388579  0.79117903  0.46658727    -0.23800
C178        C  0.10363638  0.82304331  0.45615093    -0.00800
H179        H  0.23028795  0.71165482  0.01556882     0.13000
H180        H  0.00505747  0.76541176  0.44996158     0.13000
O181        O  0.65146107  0.57824651  0.17692302    -0.75100
O182        O  0.58293445  0.57170013  0.13633934    -0.54000
C183        C  0.63374007  0.57676187  0.14498600     0.78600
O184        O  0.43500581  0.38898339  0.29370537    -0.59700
O185        O  0.45500804  0.46294851  0.33140911    -0.52700
C186        C  0.43943766  0.40946368  0.32507308     0.70600
O187        O  0.44492595  0.39320043  0.17247642    -0.74300
O188        O  0.46802891  0.46773679  0.13378882    -0.54800
C189        C  0.45316997  0.41455547  0.14091756     0.76700
O190        O  0.64436386  0.57470132  0.29672729    -0.59400
O191        O  0.56876314  0.56197727  0.33350500    -0.52500
C192        C  0.62081734  0.56785685  0.32766542     0.73200
Zr193      Zr  0.61164147  0.57815929  0.23597053     2.54700
O194        O  0.66952127  0.52821987  0.23645195    -0.80000
O195        O  0.70523227  0.67261637  0.23811410    -0.93400
Zr196      Zr  0.44964971  0.42937297  0.23311153     2.64700
O197        O  0.49793261  0.37034893  0.23556670    -0.98300
O198        O  0.34946506  0.34202891  0.23117649    -0.80400
O199        O  0.53336532  0.50413834  0.20106179    -0.83800
O200        O  0.52928093  0.50191288  0.26767617    -2.18500
O201        O  0.54163280  0.71285041  0.29366097    -0.67100
O202        O  0.51418501  0.63752457  0.33252342    -0.51700
C203        C  0.53280271  0.69160448  0.32522806     0.71600
O204        O  0.33038067  0.50962504  0.16993897    -0.60100
O205        O  0.40763189  0.53304569  0.13145114    -0.52000
C206        C  0.35195660  0.51521046  0.13859956     0.73400
O207        O  0.32192044  0.50476251  0.28981102    -0.71400
O208        O  0.39641567  0.52822252  0.33000412    -0.50100
C209        C  0.34127496  0.50994388  0.32167306     0.74800
O210        O  0.54511591  0.71603080  0.17325611    -0.66800
O211        O  0.52433483  0.64244317  0.13519951    -0.54000
C212        C  0.54072979  0.69608927  0.14177860     0.73200
Zr213      Zr  0.53128281  0.67419712  0.23337510     2.77500
O214        O  0.48395234  0.73425123  0.23402791    -0.97500
O215        O  0.63261894  0.76002289  0.23415606    -0.78300
Zr216      Zr  0.36830391  0.52618667  0.23075812     2.70100
O217        O  0.32968533  0.59352642  0.22920059    -0.79600
O218        O  0.26457603  0.44414535  0.22926397    -0.98700
Zr219      Zr  0.49367936  0.55374800  0.16789775     2.21500
Zr220      Zr  0.48650653  0.55107899  0.29793153     2.11100
O221        O  0.44648943  0.60076595  0.26550624    -2.47400
O222        O  0.45064402  0.60228918  0.19844024    -0.79400
O223        O  0.56197286  0.61851686  0.26330512    -0.71600
O224        O  0.40987640  0.47751313  0.19890128    -2.32500
O225        O  0.57541576  0.62860192  0.20072426    -2.28700
O226        O  0.40584229  0.47601459  0.26517460    -0.73300
H227        H  0.54335574  0.48266516  0.28345188     0.78700
H228        H  0.38030648  0.44937354  0.18289567     0.79700
H229        H  0.43024299  0.61835979  0.28092670     0.82000
H230        H  0.60723776  0.65683555  0.18558859     0.79600
H231        H  0.32815195  0.34982902  0.21211045     0.42600
H232        H  0.24087011  0.46027371  0.21846226     0.41600
H233        H  0.34480016  0.61686176  0.25097722     0.41300
H234        H  0.51550415  0.77311921  0.22505673     0.39200
H235        H  0.62642147  0.79312817  0.23988934     0.42300
H236        H  0.73743201  0.66247085  0.23952373     0.37100
H237        H  0.64039203  0.48775846  0.24438334     0.43200
H238        H  0.46813570  0.33229819  0.22505532     0.39600
H239        H  0.45342142  0.71810081  0.21507017     0.44600
H240        H  0.70503096  0.68853509  0.26158277     0.43300
H241        H  0.53111963  0.38865531  0.21809285     0.43400
H242        H  0.26464008  0.41692865  0.21148429     0.43800
N243        N  0.41486299  0.28028742  0.48357284    -0.03300
C244        C  0.38960857  0.27136505  0.01509918    -0.00700
C245        C  0.32128499  0.25115143  0.50332106    -0.23600
C246        C  0.31994293  0.25238822  0.46725129    -0.23800
C247        C  0.37834179  0.27349950  0.45557727    -0.00800
H248        H  0.29363110  0.24363379  0.02298986     0.13000
H249        H  0.28257738  0.24809781  0.45170891     0.13000
N250        N  0.20597164  0.43242930  0.48164466    -0.03300
C251        C  0.22457348  0.41651217  0.45198689    -0.00700
C252        C  0.25182403  0.38455598  0.46064986    -0.23600
C253        C  0.25330115  0.38253304  0.49638660    -0.23800
C254        C  0.21810776  0.41311663  0.01274103    -0.00800
H255        H  0.27567068  0.37122615  0.44293108     0.13000
H256        H  0.25804840  0.35658730  0.01812947     0.13000
N257        N  0.75291947  0.58984662  0.48450804    -0.03300
C258        C  0.73083991  0.55072717  0.45732491    -0.00700
C259        C  0.70046860  0.49417580  0.47052151    -0.23600
C260        C  0.69840717  0.49826071  0.50627814    -0.23800
C261        C  0.72856251  0.55739461  0.51445485    -0.00800
H262        H  0.67340995  0.45460774  0.45553731     0.13000
H263        H  0.67119804  0.46197235  0.52390775     0.13000
N264        N  0.56643152  0.82400179  0.48478272    -0.03300
C265        C  0.59689798  0.82226230  0.45565077    -0.00700
C266        C  0.65534794  0.83829221  0.46504011    -0.23600
C267        C  0.65950313  0.84527672  0.50082117    -0.23800
C268        C  0.60327873  0.83238161  0.51295385    -0.00800
H269        H  0.68906147  0.83734715  0.44840132     0.13000
H270        H  0.69596209  0.84817409  0.51667090     0.13000
C271        C  0.24122648  0.44785706  0.41761751    -0.05900
C272        C  0.21829692  0.41459594  0.38679668    -0.17100
C273        C  0.24541902  0.43673997  0.35380150     0.11300
C274        C  0.29857420  0.49238091  0.35177323    -0.05900
C275        C  0.31886331  0.52701521  0.38215877    -0.17100
C276        C  0.29098894  0.50556791  0.41475810     0.11300
S277        S  0.21592697  0.39067762  0.31554594    -0.32100
S278        S  0.32690263  0.55049220  0.45247123    -0.32100
H279        H  0.27274082  0.54268340  0.46648045     0.29300
H280        H  0.16118100  0.34800484  0.33102775     0.29300
H281        H  0.18130060  0.36975110  0.38901128     0.19900
H282        H  0.35959425  0.56980579  0.38096365     0.19900
C283        C  0.30903008  0.49493103  0.10873999    -0.05900
C284        C  0.26157234  0.43636929  0.10923332    -0.17100
C285        C  0.22780964  0.40949056  0.07897171     0.11300
C286        C  0.23993597  0.44235357  0.04738288    -0.05900
C287        C  0.28451124  0.50214333  0.04775102    -0.17100
C288        C  0.31929091  0.52862368  0.07782044     0.11300
S289        S  0.17287287  0.33205017  0.08204243    -0.32100
S290        S  0.37769785  0.60479383  0.07451837    -0.32100
H291        H  0.37911204  0.61721883  0.11052099     0.29300
H292        H  0.13942883  0.32873099  0.05201982     0.29300
H293        H  0.25357447  0.40998953  0.13272731     0.19900
H294        H  0.29495207  0.52772142  0.02387090     0.19900
C295        C  0.57185346  0.79319630  0.42078974    -0.05900
C296        C  0.60898359  0.81761038  0.39084211    -0.17100
C297        C  0.59642376  0.78717226  0.35891187     0.11300
C298        C  0.54455473  0.73083598  0.35598122    -0.05900
C299        C  0.50490393  0.70836527  0.38486061    -0.17100
C300        C  0.51751893  0.73846586  0.41695535     0.11300
S301        S  0.65151965  0.82034838  0.32420534    -0.32100
S302        S  0.46387829  0.70364090  0.45222406    -0.32100
H303        H  0.41341340  0.67248942  0.43028154     0.29300
H304        H  0.65219261  0.76879562  0.31603487     0.29300
H305        H  0.65026845  0.85976077  0.39290327     0.19900
H306        H  0.46458190  0.66550990  0.38273538     0.19900
C307        C  0.58051446  0.80009572  0.04561099    -0.05900
C308        C  0.59426832  0.82883433  0.07827157    -0.17100
C309        C  0.58203128  0.79734956  0.11041703     0.11300
C310        C  0.55500084  0.73521963  0.10990109    -0.05900
C311        C  0.54434962  0.70786586  0.07683574    -0.17100
C312        C  0.55773097  0.73629952  0.54576775     0.11300
S313        S  0.60415607  0.83776289  0.15112672    -0.32100
S314        S  0.55993762  0.69944069  0.50640210    -0.32100
H315        H  0.54766643  0.64622964  0.52218222     0.29300
H316        H  0.62615539  0.89396850  0.13643288     0.29300
H317        H  0.61521958  0.87614630  0.07843773     0.19900
H318        H  0.52681292  0.66114448  0.07529189     0.19900
C319        C  0.70798098  0.56083310  0.42367168    -0.05900
C320        C  0.72253345  0.54402956  0.39182666    -0.17100
C321        C  0.69492669  0.54499309  0.36002523     0.11300
C322        C  0.65384172  0.56601560  0.35954847    -0.05900
C323        C  0.63787021  0.58025944  0.39180635    -0.17100
C324        C  0.66109658  0.57398748  0.42363351     0.11300
S325        S  0.70921692  0.51317370  0.32220273    -0.32100
S326        S  0.62139145  0.57081567  0.46344613    -0.32100
H327        H  0.58598939  0.59288265  0.44951527     0.29300
H328        H  0.64785085  0.48013409  0.31271463     0.29300
H329        H  0.75393392  0.52798349  0.39199955     0.19900
H330        H  0.60392440  0.59303495  0.39241841     0.19900
C331        C  0.72129396  0.57249144  0.04946638    -0.05900
C332        C  0.71949072  0.53862778  0.07878508    -0.17100
C333        C  0.69471405  0.54123844  0.11114410     0.11300
C334        C  0.67286256  0.58032570  0.11520234    -0.05900
C335        C  0.67994623  0.61815514  0.08728443    -0.17100
C336        C  0.70340698  0.61485492  0.05457525     0.11300
S337        S  0.68645168  0.48910236  0.14463882    -0.32100
S338        S  0.70602479  0.66894209  0.51979550    -0.32100
H339        H  0.67937296  0.69638482  0.53795874     0.29300
H340        H  0.62772374  0.47432846  0.15489460     0.29300
H341        H  0.73373306  0.50665059  0.07572474     0.19900
H342        H  0.66411343  0.64880633  0.09079620     0.19900
C343        C  0.42667082  0.37122051  0.35710585    -0.05900
C344        C  0.44577984  0.39989670  0.38974413    -0.17100
C345        C  0.43081243  0.36937558  0.42157464     0.11300
C346        C  0.39799660  0.30750941  0.42190973    -0.05900
C347        C  0.37866794  0.27806067  0.38956853    -0.17100
C348        C  0.39397189  0.30891481  0.35719378     0.11300
S349        S  0.45096705  0.41308805  0.46070157    -0.32100
S350        S  0.37035724  0.26759853  0.31688855    -0.32100
H351        H  0.35661583  0.21327922  0.33171092     0.29300
H352        H  0.39474293  0.37831357  0.47731267     0.29300
H353        H  0.47144377  0.44739466  0.39090842     0.19900
H354        H  0.35180067  0.23059813  0.38976140     0.19900
C355        C  0.44366625  0.37573125  0.11014826    -0.05900
C356        C  0.40115589  0.31522620  0.11215507    -0.17100
C357        C  0.38517583  0.27913729  0.08210038     0.11300
C358        C  0.41173052  0.30387086  0.04911260    -0.05900
C359        C  0.45628676  0.36328184  0.04787834    -0.17100
C360        C  0.47313814  0.39887257  0.07750308     0.11300
S361        S  0.33211808  0.20150948  0.08628278    -0.32100
S362        S  0.53489861  0.47284958  0.07158480    -0.32100
H363        H  0.56221476  0.47141086  0.10326026     0.29300
H364        H  0.33203544  0.19949791  0.12325424     0.29300
H365        H  0.37898304  0.29652976  0.13699636     0.19900
H366        H  0.47976680  0.38230792  0.02372940     0.19900
C367        C  0.85035878  0.65975926  0.04482261    -0.05900
C368        C  0.84865480  0.68674838  0.07636046    -0.17100
C369        C  0.86628360  0.67399974  0.10879836     0.11300
C370        C  0.88735864  0.63375939  0.11022231    -0.05900
C371        C  0.88915206  0.60736554  0.07847504    -0.17100
C372        C  0.87050740  0.61897557  0.04633902     0.11300
S373        S  0.86486868  0.71376341  0.14661828    -0.32100
S374        S  0.87634335  0.58319835  0.00753567    -0.32100
H375        H  0.88933467  0.54328602  0.02423120     0.29300
H376        H  0.92464303  0.73140856  0.15617938     0.29300
H377        H  0.83420385  0.71882069  0.07559717     0.19900
H378        H  0.90689930  0.57803389  0.07850439     0.19900
C379        C  0.88464446  0.63556045  0.35927833    -0.05900
C380        C  0.84459235  0.65729262  0.35598006    -0.17100
C381        C  0.82367018  0.67382199  0.38576040     0.11300
C382        C  0.83922952  0.66431280  0.41988460    -0.05900
C383        C  0.88165720  0.64640751  0.42287964    -0.17100
C384        C  0.90621435  0.63418078  0.39369617     0.11300
S385        S  0.77792456  0.70688072  0.37834414    -0.32100
S386        S  0.96846498  0.62175783  0.40235697    -0.32100
H387        H  0.98449590  0.64822498  0.43565906     0.29300
H388        H  0.75451984  0.69985148  0.41253399     0.29300
H389        H  0.82982449  0.66200124  0.33012473     0.19900
H390        H  0.89912063  0.64605444  0.44855255     0.19900
C391        C  0.87239188  0.38813988  0.11314547    -0.05900
C392        C  0.87955641  0.33901473  0.11100529    -0.17100
C393        C  0.86749228  0.30665641  0.07971366     0.11300
C394        C  0.84845595  0.32394624  0.04903108    -0.05900
C395        C  0.83849514  0.37141396  0.05183312    -0.17100
C396        C  0.84804015  0.40190086  0.08364814     0.11300
S397        S  0.88010337  0.24533183  0.08075094    -0.32100
S398        S  0.82613187  0.45664380  0.08534582    -0.32100
H399        H  0.81654968  0.45348211  0.12188936     0.29300
H400        H  0.84727225  0.21721731  0.05048389     0.29300
H401        H  0.89744334  0.32729462  0.13341102     0.19900
H402        H  0.82352680  0.38518064  0.02896919     0.19900
C403        C  0.86594718  0.38770234  0.35856638    -0.05900
C404        C  0.86741100  0.33536988  0.35785664    -0.17100
C405        C  0.85700644  0.30115142  0.38829174     0.11300
C406        C  0.84400657  0.31910918  0.42069649    -0.05900
C407        C  0.83942263  0.36994448  0.42087141    -0.17100
C408        C  0.84916620  0.40360280  0.39029031     0.11300
S409        S  0.87040115  0.24453564  0.88572400    -0.32100
S410        S  0.83991913  0.46671216  0.39359606    -0.32100
H411        H  0.82459941  0.46702626  0.35811856     0.29300
H412        H  0.84886622  0.21991595  0.91897490     0.29300
H413        H  0.88048226  0.32280924  0.33381512     0.19900
H414        H  0.82954363  0.38441922  0.44528167     0.19900
C415        C  0.11873231  0.49627950  0.11636050    -0.05900
C416        C  0.15539367  0.53759680  0.09076024    -0.17100
C417        C  0.16399415  0.51972150  0.05756577     0.11300
C418        C  0.13562603  0.45930752  0.04985985    -0.05900
C419        C  0.10372588  0.41833132  0.07670405    -0.17100
C420        C  0.09479149  0.43601758  0.10967320     0.11300
S421        S  0.20317057  0.57394250  0.02353894    -0.32100
S422        S  0.04571997  0.37922635  0.14021814    -0.32100
H423        H  0.01318889  0.40622708  0.15091456     0.29300
H424        H  0.22565927  0.62334614  0.04542478     0.29300
H425        H  0.17319468  0.58378766  0.09583691     0.19900
H426        H  0.07953619  0.37194427  0.07059615     0.19900
C427        C  0.11492512  0.49228445  0.35622938    -0.05900
C428        C  0.08099874  0.43152423  0.36146635    -0.17100
C429        C  0.08578019  0.40611802  0.39263563     0.11300
C430        C  0.12326923  0.44247990  0.41999693    -0.05900
C431        C  0.16062776  0.50280870  0.41352927    -0.17100
C432        C  0.15878109  0.52744310  0.38122631     0.11300
S433        S  0.03944220  0.32745463  0.39703301    -0.32100
S434        S  0.21377499  0.60319023  0.37324018    -0.32100
H435        H  0.20861856  0.60089973  0.33641576     0.29300
H436        H  0.07504235  0.32175280  0.42311432     0.29300
H437        H  0.04821068  0.40397896  0.34191109     0.19900
H438        H  0.18961759  0.53118538  0.43411265     0.19900
C439        C  0.14617073  0.74572487  0.11649869    -0.05900
C440        C  0.10861684  0.74477377  0.08947998    -0.17100
C441        C  0.13015956  0.76132824  0.05516254     0.11300
C442        C  0.19134459  0.78076690  0.04757129    -0.05900
C443        C  0.22971925  0.78490029  0.07521702    -0.17100
C444        C  0.20827326  0.76948548  0.10969096     0.11300
S445        S  0.07626607  0.74815033  0.02123325    -0.32100
S446        S  0.26081186  0.77556941  0.14301172    -0.32100
H447        H  0.24097537  0.80209636  0.16738663     0.29300
H448        H  0.03011188  0.74410325  0.04317574     0.29300
H449        H  0.06071817  0.72565201  0.09470451     0.19900
H450        H  0.27653714  0.79878731  0.06963412     0.19900
C451        C  0.11657754  0.75203115  0.35791799    -0.05900
C452        C  0.08858281  0.78587026  0.35932264    -0.17100
C453        C  0.08940530  0.81528619  0.39012519     0.11300
C454        C  0.11848593  0.81060493  0.42065059    -0.05900
C455        C  0.14976202  0.77998843  0.41840027    -0.17100
C456        C  0.15002387  0.75185794  0.38732697     0.11300
S457        S  0.04904125  0.85482776  0.38949246    -0.32100
S458        S  0.19250505  0.71504855  0.38727206    -0.32100
H459        H  0.20109424  0.71752285  0.35064920     0.29300
H460        H  0.07910025  0.89125805  0.41825250     0.29300
H461        H  0.06261419  0.78639276  0.33698789     0.19900
H462        H  0.17113915  0.77489916  0.44160895     0.19900
C463        C  0.71913301  0.24462747  0.05075458    -0.05900
C464        C  0.70938561  0.27428967  0.07828011    -0.17100
C465        C  0.68918232  0.24809955  0.11139255     0.11300
C466        C  0.67627361  0.19008539  0.11673266    -0.05900
C467        C  0.69099306  0.16240852  0.09066013    -0.17100
C468        C  0.71316818  0.18937616  0.05794370     0.11300
S469        S  0.67302278  0.28614426  0.14513758    -0.32100
S470        S  0.72619469  0.14905826  0.02481575    -0.32100
H471        H  0.72527006  0.10708532  0.54906267     0.29300
H472        H  0.69008408  0.33773469  0.12572743     0.29300
H473        H  0.71271317  0.31608839  0.07276798     0.19900
H474        H  0.68083118  0.11778475  0.09513949     0.19900
C475        C  0.66796689  0.19397732  0.35360301    -0.05900
C476        C  0.68501781  0.16659566  0.37874388    -0.17100
C477        C  0.70793731  0.19271287  0.41128222     0.11300
C478        C  0.71396696  0.24769956  0.41910966    -0.05900
C479        C  0.70276031  0.27771195  0.39217823    -0.17100
C480        C  0.67971267  0.25146574  0.35960075     0.11300
S481        S  0.72149295  0.15092995  0.44323331    -0.32100
S482        S  0.66131243  0.29152948  0.32829221    -0.32100
H483        H  0.60908753  0.24293730  0.31482916     0.29300
H484        H  0.72708576  0.11329781  0.41946791     0.29300
H485        H  0.67593112  0.12247848  0.37382586     0.19900
H486        H  0.70668044  0.31971222  0.39775199     0.19900
C487        C  0.48050403  0.20795029  0.10990667    -0.05900
C488        C  0.46073634  0.17836354  0.07765429    -0.17100
C489        C  0.47377299  0.20848705  0.04560254     0.11300
C490        C  0.50530938  0.27046136  0.04497409    -0.05900
C491        C  0.52546510  0.30040735  0.07709383    -0.17100
C492        C  0.51151341  0.27011722  0.10941570     0.11300
S493        S  0.45535500  0.16471805  0.00657423    -0.32100
S494        S  0.53645213  0.31341652  0.14875615    -0.32100
H495        H  0.47817930  0.28523627  0.16370837     0.29300
H496        H  0.51033589  0.20220762  0.98938624     0.29300
H497        H  0.43774359  0.13082903  0.07713545     0.19900
H498        H  0.55152164  0.34794140  0.07701295     0.19900
C499        C  0.49424583  0.27798238  0.41792710    -0.05900
C500        C  0.45190036  0.21759533  0.41724796    -0.17100
C501        C  0.44177562  0.18392414  0.38699597     0.11300
C502        C  0.47508456  0.21048688  0.35594296    -0.05900
C503        C  0.51423780  0.27169963  0.35558126    -0.17100
C504        C  0.52437942  0.30559324  0.38604923     0.11300
S505        S  0.38576338  0.10685215  0.39005942    -0.32100
S506        S  0.57719339  0.38349657  0.38237901    -0.32100
H507        H  0.55692425  0.40056884  0.41183915     0.29300
H508        H  0.36729008  0.10120027  0.35476699     0.29300
H509        H  0.42671513  0.19587613  0.44065222     0.19900
H510        H  0.53935292  0.29298869  0.33186106     0.19900
C511        C  0.23356778  0.90448397  0.04822896    -0.05900
C512        C  0.29234731  0.91405927  0.04828874    -0.17100
C513        C  0.32726748  0.92968376  0.07878629     0.11300
C514        C  0.30400639  0.93860860  0.11049980    -0.05900
C515        C  0.24381798  0.92614045  0.11107827    -0.17100
C516        C  0.20849273  0.90937641  0.08025967     0.11300
S517        S  0.40047093  0.93540181  0.07654102    -0.32100
S518        S  0.13164931  0.89450782  0.08185278    -0.32100
H519        H  0.13153368  0.90790345  0.11757274     0.29300
H520        H  0.40223066  0.92791970  0.04006182     0.29300
H521        H  0.31089133  0.90870607  0.02428437     0.19900
H522        H  0.22534770  0.93186701  0.13530702     0.19900
C523        C  0.29511555  0.93947484  0.35555095    -0.05900
C524        C  0.31101669  0.91606815  0.38409770    -0.17100
C525        C  0.28234026  0.90633729  0.41686204     0.11300
C526        C  0.23619274  0.92005654  0.42153323    -0.05900
C527        C  0.21770372  0.93975344  0.39226698    -0.17100
C528        C  0.24600545  0.94892232  0.35933121     0.11300
S529        S  0.31358145  0.88571571  0.45283020    -0.32100
S530        S  0.22478577  0.98077892  0.32403340    -0.32100
H531        H  0.17294008  0.97527215  0.34035649     0.29300
H532        H  0.38859359  0.91596308  0.93934992     0.29300
H533        H  0.34901440  0.90909644  0.38152114     0.19900
H534        H  0.18445845  0.95291608  0.39612370     0.19900
C535        C  0.50529880  0.90068505  0.11510828    -0.05900
C536        C  0.53513186  0.93382668  0.08518779    -0.17100
C537        C  0.52502904  0.90830366  0.05200759     0.11300
C538        C  0.49141557  0.84660621  0.04854950    -0.05900
C539        C  0.46450063  0.81249825  0.07893504    -0.17100
C540        C  0.47084692  0.83870214  0.11205547     0.11300
S541        S  0.54305459  0.95603792  0.01454590    -0.32100
S542        S  0.42901090  0.79124939  0.14821596    -0.32100
H543        H  0.47930276  0.81386348  0.17063932     0.29300
H544        H  0.62351104  0.00877805  0.53661353     0.29300
H545        H  0.56103280  0.98119122  0.08724729     0.19900
H546        H  0.43597261  0.76532558  0.07651189     0.19900
C547        C  0.50036528  0.85052242  0.42012139    -0.05900
C548        C  0.45705802  0.81883237  0.39402481    -0.17100
C549        C  0.45720441  0.84465234  0.36191957     0.11300
C550        C  0.50269503  0.90299244  0.35520325    -0.05900
C551        C  0.55029486  0.93189896  0.37886710    -0.17100
C552        C  0.55029877  0.90628701  0.41110650     0.11300
S553        S  0.39476986  0.80325828  0.33250192    -0.32100
S554        S  0.61420977  0.94664323  0.43944993    -0.32100
H555        H  0.63876779  0.00250181  0.92671872     0.29300
H556        H  0.38677070  0.85047449  0.32317663     0.29300
H557        H  0.41929453  0.77553484  0.40010452     0.19900
H558        H  0.58640226  0.97583923  0.37244396     0.19900
N559        N  0.51443487  0.83073546  0.48529225    -0.03300
C560        C  0.48019200  0.82596788  0.51418101    -0.00700
C561        C  0.42433968  0.81633746  0.50389456    -0.23600
C562        C  0.41763356  0.81381826  0.96637042    -0.23800
C563        C  0.47524207  0.82804487  0.95618887    -0.00800
H564        H  0.38973017  0.81517141  0.52072264     0.13000
H565        H  0.38327633  0.81398389  0.94991697     0.13000
N566        N  0.21032715  0.87121830  0.98454553    -0.03300
C567        C  0.21679778  0.93592243  0.51349168    -0.00700
C568        C  0.24847755  0.99355152  0.50200467    -0.23600
C569        C  0.19949509  0.94713315  0.96738440    -0.23800
C570        C  0.21263284  0.90509166  0.95660346    -0.00800
H571        H  0.27349074  0.03221170  0.51811931     0.13000
H572        H  0.20240574  0.98268456  0.95158796     0.13000
O573        O  0.31958255  0.94979879  0.79369973    -0.75100
O574        O  0.39672656  0.00126533  0.83206986    -0.54000
C575        C  0.34130695  0.96426885  0.82500301     0.78600
O576        O  0.50920233  0.92565248  0.67603626    -0.59700
O577        O  0.50125033  0.98572411  0.63588237    -0.52700
C578        C  0.50675668  0.94138854  0.64431837     0.70600
O579        O  0.50753509  0.92732724  0.79408118    -0.74300
O580        O  0.50282160  0.98977418  0.83345459    -0.54800
C581        C  0.50634903  0.94435033  0.82555160     0.76700
O582        O  0.31846477  0.95570521  0.67428988    -0.59400
O583        O  0.39525979  0.99761302  0.63416552    -0.52500
C584        C  0.33906405  0.96559542  0.64250764     0.73200
Zr585      Zr  0.36087781  0.97989924  0.73400981     2.54700
O586        O  0.29712353  0.87351294  0.73151139    -0.80000
O587        O  0.27420207  0.99406505  0.73459255    -0.93400
Zr588      Zr  0.50840519  0.96307497  0.73456676     2.64700
O589        O  0.45289836  0.85616677  0.73359446    -0.98300
O590        O  0.60537091  0.96721736  0.73476446    -0.80400
O591        O  0.43394055  0.97055840  0.76759945    -0.83800
O592        O  0.43332491  0.96917023  0.70122396    -2.18500
O593        O  0.46620731  0.18882587  0.67289652    -0.67100
O594        O  0.47438787  0.12763493  0.63404157    -0.51700
C595        C  0.46969766  0.17264847  0.64136139     0.71600
O596        O  0.65100397  0.17819556  0.79251008    -0.60100
O597        O  0.57851954  0.12180484  0.83282804    -0.52000
C598        C  0.63113654  0.16420619  0.82420832     0.73400
O599        O  0.65364080  0.17152005  0.67568101    -0.71400
O600        O  0.57980276  0.11753390  0.63564473    -0.50100
C601        C  0.63355089  0.15768058  0.64422034     0.74800
O602        O  0.47108719  0.19204509  0.79420032    -0.66800
O603        O  0.47664467  0.12974207  0.83371212    -0.54000
C604        C  0.47319171  0.17532642  0.82598252     0.73200
Zr605      Zr  0.46724519  0.15513509  0.73365678     2.77500
O606        O  0.53186785  0.26150716  0.72941235    -0.97500
O607        O  0.37526211  0.16032594  0.73631419    -0.78300
Zr608      Zr  0.61346182  0.13700552  0.73421949     2.70100
O609        O  0.69051398  0.24048438  0.73061126    -0.79600
O610        O  0.69226640  0.11162238  0.73772574    -0.98700
Zr611      Zr  0.48822006  0.05932429  0.79969149     2.21500
Zr612      Zr  0.48689259  0.05692966  0.66777098     2.11100
O613        O  0.53984894  0.14499587  0.70086698    -2.47400
O614        O  0.54127632  0.14777883  0.76702779    -0.79400
O615        O  0.41323108  0.06743273  0.69994162    -0.71600
O616        O  0.56288588  0.04999665  0.76838146    -2.32500
O617        O  0.41316060  0.06765229  0.76750981    -2.28700
O618        O  0.56238026  0.04980969  0.70002548    -0.73300
H619        H  0.41262319  0.93533327  0.68618135     0.78700
H620        H  0.59088445  0.04722319  0.78414003     0.79700
H621        H  0.56005497  0.17868913  0.68559672     0.82000
H622        H  0.38551270  0.07108332  0.78319784     0.79600
H623        H  0.59552330  0.92700415  0.72847668     0.42600
H624        H  0.71739463  0.12974066  0.71650250     0.41600
H625        H  0.66945100  0.26148254  0.73784813     0.41300
H626        H  0.54416773  0.27542767  0.75376848     0.39200
H627        H  0.38565375  0.19725888  0.72382949     0.47700
H628        H  0.27970655  0.01787971  0.75576919     0.37100
H629        H  0.32554134  0.85919524  0.72729714     0.43200
H630        H  0.41665283  0.84437875  0.74828915     0.39600
H631        H  0.56939767  0.26762212  0.71809332     0.44600
H632        H  0.23936388  0.95480800  0.74028180     0.43300
H633        H  0.47776952  0.84423199  0.74729764     0.43400
H634        H  0.71813851  0.13527945  0.75747793     0.43800
N635        N  0.48535081  0.29577604  0.98342036    -0.03300
C636        C  0.52041727  0.30909618  0.95381008    -0.00700
C637        C  0.58031920  0.33354005  0.96366236    -0.23600
C638        C  0.58179425  0.33118537  0.99970226    -0.23800
C639        C  0.52276976  0.30452783  0.01126110    -0.00800
H640        H  0.61798060  0.34325561  0.94654145     0.13000
H641        H  0.61055275  0.33610452  0.51536935     0.13000
N642        N  0.74940686  0.27243173  0.98542081    -0.03300
C643        C  0.71199099  0.26469468  0.95741478    -0.00700
C644        C  0.65688103  0.25527203  0.96916591    -0.23600
C645        C  0.65744288  0.25717334  0.50271147    -0.23800
C646        C  0.71127403  0.26178323  0.51282199    -0.00800
H647        H  0.61745809  0.24398618  0.95328696     0.13000
H648        H  0.61899236  0.24636108  0.51944554     0.13000
O649        O  0.10488120  0.50448921  0.79164465    -0.75100
O650        O  0.06179984  0.53676405  0.83146924    -0.54000
C651        C  0.09474223  0.51464201  0.82327697     0.78600
O652        O  0.11132150  0.72344306  0.67194297    -0.59700
O653        O  0.06376622  0.65009131  0.63194164    -0.52700
C654        C  0.09708272  0.70435853  0.64024981     0.70600
O655        O  0.12926844  0.72095661  0.78979257    -0.74300
O656        O  0.06964494  0.65121628  0.83017556    -0.54800
C657        C  0.11263304  0.70265823  0.82148105     0.76700
O658        O  0.10203766  0.50312012  0.67276519    -0.59400
O659        O  0.05776194  0.53451874  0.63300911    -0.52500
C660        C  0.09041949  0.51201008  0.64114157     0.73200
Zr661      Zr  0.07716887  0.51923543  0.73222795     2.54700
O662        O  0.18537144  0.55604599  0.73216475    -0.80000
O663        O  0.05323142  0.41743606  0.73143234    -0.93400
Zr664      Zr  0.09701808  0.68025283  0.73101783     2.64700
O665        O  0.20414650  0.71347218  0.72490117    -0.98300
O666        O  0.12145777  0.78197896  0.73378248    -0.80400
O667        O  0.08985016  0.60107482  0.76517018    -0.83800
O668        O  0.08973035  0.60083350  0.69810950    -2.18500
O669        O  0.87672948  0.40596773  0.67298405    -0.67100
O670        O  0.92820845  0.47926004  0.63282173    -0.51700
C671        C  0.89090327  0.42549144  0.64103250     0.71600
O672        O  0.89658725  0.62886063  0.79511246    -0.60100
O673        O  0.94210580  0.59592573  0.83227477    -0.52000
C674        C  0.91057117  0.62014501  0.82650932     0.73400
O675        O  0.89343171  0.62712315  0.67299858    -0.71400
O676        O  0.94076305  0.59763333  0.63460022    -0.50100
C677        C  0.90706290  0.61924182  0.64147052     0.74800
O678        O  0.87094148  0.40836971  0.79421563    -0.66800
O679        O  0.92898770  0.48092010  0.83311861    -0.54000
C680        C  0.88748208  0.42828090  0.82581192     0.73200
Zr681      Zr  0.89664504  0.44790363  0.73320297     2.77500
O682        O  0.79149586  0.42327096  0.72984325    -0.97500
O683        O  0.86312359  0.34366376  0.73382172    -0.78300
Zr684      Zr  0.91611042  0.60827913  0.73372970     2.70100
O685        O  0.80615370  0.55677107  0.73482929    -0.79600
O686        O  0.92435729  0.70419314  0.73546818    -0.98700
Zr687      Zr  0.99921888  0.56452240  0.79827732     2.21500
Zr688      Zr  0.99758122  0.56407240  0.66671585     2.11100
O689        O  0.90578767  0.52799355  0.69944361    -2.47400
O690        O  0.90621539  0.52752996  0.76741886    -0.79400
O691        O  0.98657872  0.48249167  0.69941525    -0.71600
O692        O  0.00794058  0.64540814  0.76547806    -2.32500
O693        O  0.98745905  0.48244966  0.76607934    -2.28700
O694        O  0.00576521  0.64435811  0.69925143    -0.73300
H695        H  0.12386226  0.61486861  0.68233511     0.78700
H696        H  0.01222028  0.67643399  0.78068609     0.79700
H697        H  0.87160166  0.51421825  0.68382271     0.82000
H698        H  0.98427295  0.45196931  0.78160500     0.79600
H699        H  0.08326498  0.78052507  0.72749168     0.42600
H700        H  0.95623475  0.72823444  0.71807207     0.41600
H701        H  0.79555171  0.58188869  0.72074955     0.41300
H702        H  0.77126758  0.38709958  0.71556464     0.39200
H703        H  0.81843810  0.32369809  0.73374704     0.42300
H704        H  0.04021545  0.40271002  0.75570168     0.37100
H705        H  0.20235442  0.58961297  0.71552261     0.43200
H706        H  0.21662180  0.73670570  0.70282737     0.39600
H707        H  0.77534986  0.41023318  0.75390121     0.44600
H708        H  0.09284938  0.41990878  0.72876667     0.43300
H709        H  0.22399020  0.74297326  0.74366246     0.43400
H710        H  0.88640159  0.69807694  0.72480506     0.43800
N711        N  0.15205406  0.43604375  0.48358962    -0.03300
C712        C  0.11730564  0.42444154  0.51328560    -0.00700
C713        C  0.05729722  0.40190825  0.50501312    -0.23600
C714        C  0.05981640  0.42698286  0.96771390    -0.23800
C715        C  0.11589843  0.43843391  0.95662955    -0.00800
H716        H  0.02156486  0.39533982  0.52291677     0.13000
H717        H  0.02381354  0.42407305  0.95140649     0.13000
N718        N  0.81000454  0.28731087  0.48416111    -0.03300
C719        C  0.84485924  0.29205013  0.51283434    -0.00700
C720        C  0.89612774  0.29215835  0.50159409    -0.23600
C721        C  0.90287820  0.30794634  0.96558161    -0.23800
C722        C  0.84803566  0.30125363  0.95555584    -0.00800
H723        H  0.93421484  0.29965946  0.51756110     0.13000
H724        H  0.94126965  0.31952568  0.94866849     0.13000
N725        N  0.80538678  0.64612548  0.98265034    -0.03300
C726        C  0.83639319  0.68267326  0.51021575    -0.00700
C727        C  0.87214525  0.74002441  0.49911415    -0.23600
C728        C  0.86263835  0.73914874  0.96437372    -0.23800
C729        C  0.82532977  0.68182442  0.95348306    -0.00800
H730        H  0.90661654  0.77591042  0.51432036     0.13000
H731        H  0.89022796  0.77640366  0.94745390     0.13000
N732        N  0.20978768  0.81662801  0.98325290    -0.03300
C733        C  0.10295945  0.81979442  0.51307724    -0.00700
C734        C  0.04349712  0.78868039  0.50221098    -0.23600
C735        C  0.22818365  0.74633362  0.96390993    -0.23800
C736        C  0.21477727  0.78891362  0.95406567    -0.00800
H737        H  0.00426074  0.76099131  0.51829571     0.13000
H738        H  0.23144725  0.71537627  0.94682705     0.13000
O739        O  0.64804551  0.58209271  0.67644212    -0.75100
O740        O  0.57813685  0.57202196  0.63579948    -0.54000
C741        C  0.63001805  0.57983961  0.64449404     0.78600
O742        O  0.43553423  0.38468129  0.79369122    -0.59700
O743        O  0.45179291  0.45779722  0.83131773    -0.52700
C744        C  0.43851022  0.40493674  0.82499537     0.70600
O745        O  0.44272616  0.38906164  0.67230236    -0.74300
O746        O  0.46543418  0.46386913  0.63380619    -0.54800
C747        C  0.45048128  0.41058246  0.64078016     0.76700
O748        O  0.64290942  0.57785275  0.79657694    -0.59400
O749        O  0.56579701  0.55918427  0.83372226    -0.52500
C750        C  0.61923416  0.56852516  0.82765744     0.73200
Zr751      Zr  0.60799249  0.57909020  0.73589818     2.54700
O752        O  0.66935355  0.53277429  0.73643358    -0.80000
O753        O  0.69958839  0.67526900  0.73710805    -0.93400
Zr754      Zr  0.45024975  0.42579434  0.73316352     2.64700
O755        O  0.50781147  0.37547127  0.73369411    -0.98300
O756        O  0.35372848  0.33412098  0.73132848    -0.80400
O757        O  0.53182341  0.50297009  0.70095730    -0.83800
O758        O  0.52809333  0.50048704  0.76774719    -2.18500
O759        O  0.53241401  0.70667776  0.79417091    -0.67100
O760        O  0.50797138  0.63218367  0.83317503    -0.51700
C761        C  0.52524675  0.68599251  0.82582836     0.71600
O762        O  0.32278658  0.49831159  0.67053535    -0.60100
O763        O  0.40127196  0.52615627  0.63220659    -0.52000
C764        C  0.34518459  0.50614298  0.63920638     0.73400
O765        O  0.31603676  0.49226084  0.79128124    -0.71400
O766        O  0.39202318  0.52123194  0.83122902    -0.50100
C767        C  0.33626280  0.49977701  0.82313674     0.74800
O768        O  0.53665161  0.71047508  0.67354426    -0.66800
O769        O  0.51572994  0.63715442  0.63520847    -0.54000
C770        C  0.53262758  0.69087819  0.64196586     0.73200
Zr771      Zr  0.51898338  0.66759354  0.73370904     2.77500
O772        O  0.45374559  0.70992627  0.73303789    -0.97500
O773        O  0.61019160  0.76399049  0.73452823    -0.78300
Zr774      Zr  0.36116165  0.51547231  0.73147435     2.70100
O775        O  0.32255896  0.58275561  0.73092757    -0.79600
O776        O  0.25874640  0.43231149  0.72567764    -0.98700
Zr777      Zr  0.48813396  0.54913394  0.66807694     2.21500
Zr778      Zr  0.48196953  0.54613447  0.79839894     2.11100
O779        O  0.43716463  0.59180417  0.76634290    -2.47400
O780        O  0.44083788  0.59344369  0.69866660    -0.79400
O781        O  0.55488217  0.61575042  0.76334686    -0.71600
O782        O  0.40669177  0.47077878  0.69934607    -2.32500
O783        O  0.56740520  0.62606255  0.70111983    -2.28700
O784        O  0.40302801  0.46888092  0.76561095    -0.73300
H785        H  0.54368636  0.48248712  0.78343197     0.78700
H786        H  0.37759072  0.44191204  0.68345021     0.79700
H787        H  0.41950920  0.60795315  0.78184645     0.82000
H788        H  0.59840197  0.65523538  0.68598431     0.79600
H789        H  0.33211304  0.33448982  0.75280143     0.42600
H790        H  0.25310483  0.40623215  0.74585858     0.41600
H791        H  0.30340084  0.57763442  0.75426911     0.41300
H792        H  0.44499148  0.71277579  0.75806478     0.39200
H793        H  0.64377510  0.75579859  0.73351473     0.42300
H794        H  0.69910449  0.69428495  0.71471269     0.37100
H795        H  0.64306348  0.49347133  0.72620539     0.43200
H796        H  0.54179895  0.39840153  0.71724209     0.39600
H797        H  0.48059106  0.75113799  0.72545806     0.44600
H798        H  0.73275241  0.66677968  0.73406277     0.43300
H799        H  0.52694183  0.38348822  0.75717713     0.43400
H800        H  0.23214220  0.44844440  0.73077596     0.43800
N801        N  0.42380441  0.28217681  0.98524215    -0.03300
C802        C  0.38049564  0.27112477  0.51317131    -0.00700
C803        C  0.33005339  0.25036002  0.00562829    -0.23600
C804        C  0.32827691  0.25302346  0.96961253    -0.23800
C805        C  0.38668910  0.27558674  0.95755857    -0.00800
H806        H  0.28500126  0.24598437  0.52026577     0.13000
H807        H  0.29017942  0.24777395  0.95442446     0.13000
N808        N  0.20260599  0.43507767  0.98435193    -0.03300
C809        C  0.21833564  0.41410826  0.95572787    -0.00700
C810        C  0.23764022  0.37617220  0.96611641    -0.23600
C811        C  0.23767508  0.37567445  0.00188994    -0.23800
C812        C  0.22647789  0.41291361  0.50884350    -0.00800
H813        H  0.25742681  0.35710255  0.94950948     0.13000
H814        H  0.27820568  0.36704632  0.51160298     0.13000
N815        N  0.75521868  0.58728832  0.98419038    -0.03300
C816        C  0.73193177  0.54935999  0.95643997    -0.00700
C817        C  0.70113553  0.49238914  0.96895542    -0.23600
C818        C  0.70025920  0.49511058  0.00487944    -0.23800
C819        C  0.73132455  0.55386949  0.01392417    -0.00800
H820        H  0.67311210  0.45360645  0.95357287     0.13000
H821        H  0.67281821  0.45833648  0.02213837     0.13000
N822        N  0.56040870  0.82272356  0.98424830    -0.03300
C823        C  0.59082446  0.82196714  0.95483418    -0.00700
C824        C  0.65038101  0.84157614  0.96349952    -0.23600
C825        C  0.65554436  0.85002994  0.99918842    -0.23800
C826        C  0.59885600  0.83438213  0.01200076    -0.00800
H827        H  0.68456410  0.84218748  0.94653879     0.13000
H828        H  0.69357729  0.85578345  0.01466054     0.13000
C829        C  0.23669936  0.44151439  0.92010898    -0.05900
C830        C  0.21813692  0.40399885  0.89080674    -0.17100
C831        C  0.24564463  0.42340491  0.85762864     0.11300
C832        C  0.29397053  0.48155234  0.85353559    -0.05900
C833        C  0.31071524  0.51974152  0.88234879    -0.17100
C834        C  0.28304055  0.50052234  0.91532067     0.11300
S835        S  0.22398459  0.37145608  0.82218261    -0.32100
S836        S  0.31581428  0.55084538  0.95121715    -0.32100
H837        H  0.26048292  0.54124376  0.96421190     0.29300
H838        H  0.17260372  0.32549726  0.83872218     0.29300
H839        H  0.18456151  0.35816159  0.89459760     0.19900
H840        H  0.34860969  0.56415747  0.87973372     0.19900
C841        C  0.30363402  0.48694795  0.60874549    -0.05900
C842        C  0.25971238  0.42719548  0.60655074    -0.17100
C843        C  0.23037474  0.40231771  0.57477934     0.11300
C844        C  0.24258863  0.43835397  0.54465971    -0.05900
C845        C  0.28285541  0.49895087  0.54774178    -0.17100
C846        C  0.31424913  0.52341608  0.57905748     0.11300
S847        S  0.18103264  0.32364995  0.57382796    -0.32100
S848        S  0.37036502  0.60060554  0.57854129    -0.32100
H849        H  0.36967197  0.60923287  0.61493536     0.29300
H850        H  0.14741760  0.32209757  0.54424457     0.29300
H851        H  0.25186756  0.39867180  0.62895989     0.19900
H852        H  0.29340052  0.52696063  0.52493902     0.19900
C853        C  0.56519903  0.79063493  0.92056711    -0.05900
C854        C  0.59983173  0.81525957  0.88979913    -0.17100
C855        C  0.58659447  0.78386202  0.85815162     0.11300
C856        C  0.53731382  0.72564093  0.85657121    -0.05900
C857        C  0.50011883  0.70254805  0.88646795    -0.17100
C858        C  0.51265528  0.73425299  0.91800051     0.11300
S859        S  0.63725302  0.81923664  0.82171559    -0.32100
S860        S  0.46090059  0.69979138  0.95410466    -0.32100
H861        H  0.40997664  0.66774251  0.93267963     0.29300
H862        H  0.64303491  0.77043851  0.81349129     0.29300
H863        H  0.63940046  0.85883984  0.89082387     0.19900
H864        H  0.46142707  0.65843267  0.88546285     0.19900
C865        C  0.58188476  0.79750229  0.54631049    -0.05900
C866        C  0.59536046  0.82552256  0.57919850    -0.17100
C867        C  0.57879372  0.79311226  0.61112781     0.11300
C868        C  0.54906399  0.73077368  0.61023037    -0.05900
C869        C  0.53873234  0.70396010  0.57698365    -0.17100
C870        C  0.55976788  0.73945538  0.04536302     0.11300
S871        S  0.59828737  0.83258207  0.65215198    -0.32100
S872        S  0.56338291  0.70318399  0.00607323    -0.32100
H873        H  0.53160534  0.64517485  0.01888721     0.29300
H874        H  0.61817049  0.88864801  0.63779158     0.29300
H875        H  0.61921509  0.87299103  0.57975446     0.19900
H876        H  0.51800472  0.65682662  0.57511355     0.19900
C877        C  0.70884237  0.56120792  0.92323343    -0.05900
C878        C  0.72675583  0.55008020  0.89062845    -0.17100
C879        C  0.70000870  0.55310445  0.85887879     0.11300
C880        C  0.65354888  0.56737908  0.85939554    -0.05900
C881        C  0.63423621  0.57576902  0.89237583    -0.17100
C882        C  0.65915175  0.57030943  0.92388973     0.11300
S883        S  0.72503971  0.53495792  0.81923955    -0.32100
S884        S  0.62034578  0.56554765  0.96441134    -0.32100
H885        H  0.57825741  0.57960926  0.95075852     0.29300
H886        H  0.66601256  0.49518679  0.80778936     0.29300
H887        H  0.76138128  0.53811860  0.88996261     0.19900
H888        H  0.59720028  0.58421353  0.89370812     0.19900
C889        C  0.71909304  0.57722134  0.54960738    -0.05900
C890        C  0.71870129  0.54473101  0.57921594    -0.17100
C891        C  0.69406365  0.54762854  0.61144723     0.11300
C892        C  0.66989453  0.58488129  0.61486767    -0.05900
C893        C  0.67577637  0.62182173  0.58663230    -0.17100
C894        C  0.70057850  0.61918769  0.55423031     0.11300
S895        S  0.68917979  0.49800283  0.64570405    -0.32100
S896        S  0.70760010  0.66433697  0.02032832    -0.32100
H897        H  0.67437559  0.68614409  0.03733250     0.29300
H898        H  0.62948244  0.48006109  0.65564637     0.29300
H899        H  0.73417118  0.51361608  0.57653899     0.19900
H900        H  0.65824289  0.65120261  0.58968327     0.19900
C901        C  0.42802006  0.36771803  0.85715432    -0.05900
C902        C  0.45455643  0.39770326  0.88854500    -0.17100
C903        C  0.44240593  0.36911068  0.92106271     0.11300
C904        C  0.40495530  0.30755824  0.92300600    -0.05900
C905        C  0.37863650  0.27679131  0.89168527    -0.17100
C906        C  0.39025181  0.30591319  0.85879643     0.11300
S907        S  0.47183331  0.41344496  0.95977160    -0.32100
S908        S  0.35426087  0.26382233  0.81991727    -0.32100
H909        H  0.33254204  0.20808784  0.83526653     0.29300
H910        H  0.49077443  0.46827890  0.94392837     0.29300
H911        H  0.48469707  0.44478610  0.88781532     0.19900
H912        H  0.34838892  0.22976356  0.89317990     0.19900
C913        C  0.43960374  0.37184462  0.60976222    -0.05900
C914        C  0.39311934  0.31263940  0.61083299    -0.17100
C915        C  0.37469522  0.27780577  0.58019063     0.11300
C916        C  0.40306395  0.30256888  0.54752187    -0.05900
C917        C  0.45098960  0.36080501  0.54707090    -0.17100
C918        C  0.47048936  0.39475674  0.57746652     0.11300
S919        S  0.31573979  0.20167895  0.58319836    -0.32100
S920        S  0.53720427  0.46620870  0.57312565    -0.32100
H921        H  0.55975589  0.46355794  0.60631141     0.29300
H922        H  0.30210519  0.20197588  0.61897992     0.29300
H923        H  0.36984230  0.29426268  0.63544753     0.19900
H924        H  0.47502547  0.37996908  0.52292179     0.19900
C925        C  0.84838196  0.66213099  0.54436956    -0.05900
C926        C  0.85013210  0.69158122  0.57557174    -0.17100
C927        C  0.86760178  0.67852006  0.60790955     0.11300
C928        C  0.88302901  0.63419180  0.60960707    -0.05900
C929        C  0.88047301  0.60474461  0.57832913    -0.17100
C930        C  0.86446457  0.61835682  0.54606167     0.11300
S931        S  0.87409478  0.72321688  0.64499834    -0.32100
S932        S  0.86825399  0.58090445  0.50742115    -0.32100
H933        H  0.89441327  0.55067971  0.52299827     0.29300
H934        H  0.93231829  0.73464035  0.65386478     0.29300
H935        H  0.83934710  0.72626354  0.57450645     0.19900
H936        H  0.89323024  0.57162365  0.57882102     0.19900
C937        C  0.88995128  0.63862209  0.85880378    -0.05900
C938        C  0.85139051  0.66215218  0.85577967    -0.17100
C939        C  0.82900597  0.67678908  0.88575762     0.11300
C940        C  0.84256508  0.66485334  0.91983985    -0.05900
C941        C  0.88436590  0.64611080  0.92265007    -0.17100
C942        C  0.90919598  0.63416007  0.89337867     0.11300
S943        S  0.78256367  0.70916752  0.87863733    -0.32100
S944        S  0.96764532  0.61636277  0.90230653    -0.32100
H945        H  0.98194707  0.63872896  0.93666568     0.29300
H946        H  0.75506066  0.69651783  0.91194618     0.29300
H947        H  0.83815350  0.66893596  0.82995157     0.19900
H948        H  0.90054918  0.64407374  0.94834890     0.19900
C949        C  0.86554957  0.38368797  0.61106178    -0.05900
C950        C  0.87363781  0.33507401  0.61029133    -0.17100
C951        C  0.86310304  0.30182900  0.57956822     0.11300
C952        C  0.84557847  0.31832036  0.54793930    -0.05900
C953        C  0.83578298  0.36607473  0.54924216    -0.17100
C954        C  0.84278353  0.39673991  0.58063307     0.11300
S955        S  0.87489560  0.24015662  0.58301587    -0.32100
S956        S  0.81842732  0.44975516  0.58087284    -0.32100
H957        H  0.80576473  0.44544803  0.61711129     0.29300
H958        H  0.84272729  0.21032931  0.55299835     0.29300
H959        H  0.89074191  0.32426013  0.63345341     0.19900
H960        H  0.82160370  0.37909081  0.52573034     0.19900
C961        C  0.86081729  0.38777124  0.85645597    -0.05900
C962        C  0.86454390  0.33665236  0.85712345    -0.17100
C963        C  0.85737616  0.30552918  0.88852498     0.11300
C964        C  0.84391526  0.32457090  0.92040124    -0.05900
C965        C  0.83656223  0.37379578  0.91919713    -0.17100
C966        C  0.84421644  0.40500504  0.88774829     0.11300
S967        S  0.86367939  0.23666001  0.38343982    -0.32100
S968        S  0.83368328  0.46747332  0.88949738    -0.32100
H969        H  0.81911920  0.46655579  0.85376907     0.29300
H970        H  0.83938148  0.21004625  0.41588286     0.29300
H971        H  0.87794824  0.32338926  0.83348405     0.19900
H972        H  0.82679119  0.38930799  0.94323157     0.19900
C973        C  0.11399045  0.49308992  0.61167484    -0.05900
C974        C  0.14264383  0.53197924  0.58342515    -0.17100
C975        C  0.15418646  0.51241382  0.55167006     0.11300
C976        C  0.13618441  0.45264092  0.54801344    -0.05900
C977        C  0.11264410  0.41530637  0.57737188    -0.17100
C978        C  0.10137747  0.43466512  0.60900471     0.11300
S979        S  0.18362528  0.56178500  0.51444514    -0.32100
S980        S  0.06298247  0.38033147  0.64297458    -0.32100
H981        H  0.01978380  0.39675707  0.65016062     0.29300
H982        H  0.19720011  0.61316948  0.53271324     0.29300
H983        H  0.15238970  0.57678795  0.58554093     0.19900
H984        H  0.09614165  0.36888188  0.57432736     0.19900
C985        C  0.11925841  0.49654664  0.85285308    -0.05900
C986        C  0.09343821  0.43629782  0.85947925    -0.17100
C987        C  0.09899991  0.41568067  0.89245572     0.11300
C988        C  0.13197563  0.45603183  0.91944720    -0.05900
C989        C  0.16284705  0.51631329  0.91152769    -0.17100
C990        C  0.15735931  0.53686379  0.87846301     0.11300
S991        S  0.05688863  0.33737480  0.89994048    -0.32100
S992        S  0.19626857  0.61509355  0.87138065    -0.32100
H993        H  0.19818447  0.61257838  0.83450614     0.29300
H994        H  0.08930202  0.33740554  0.92975904     0.29300
H995        H  0.06411777  0.40500200  0.83999399     0.19900
H996        H  0.18656241  0.54782081  0.93214638     0.19900
C997        C  0.11506650  0.74766959  0.61134149    -0.05900
C998        C  0.08592372  0.78031924  0.60968595    -0.17100
C999        C  0.08614513  0.80944531  0.57882858     0.11300
C1000       C  0.11766238  0.80734934  0.54871063    -0.05900
C1001       C  0.15086287  0.77843805  0.55137618    -0.17100
C1002       C  0.15004585  0.74883110  0.58235361     0.11300
S1003       S  0.03942886  0.84260238  0.57880987    -0.32100
S1004       S  0.19173601  0.71071883  0.58269285    -0.32100
H1005       H  0.19667146  0.70906398  0.61944506     0.29300
H1006       H  0.06497697  0.87815971  0.54890458     0.29300
H1007       H  0.05839440  0.77903150  0.63169197     0.19900
H1008       H  0.17435781  0.77562604  0.52846363     0.19900
C1009       C  0.14469285  0.74269677  0.85064080    -0.05900
C1010       C  0.11034758  0.75115531  0.87591377    -0.17100
C1011       C  0.13426792  0.77414284  0.90900227     0.11300
C1012       C  0.19372673  0.78755529  0.91731737    -0.05900
C1013       C  0.22997062  0.78530585  0.89023429    -0.17100
C1014       C  0.20616709  0.76357339  0.85691275     0.11300
S1015       S  0.08683465  0.78321041  0.93994360    -0.32100
S1016       S  0.25282976  0.75693254  0.82403029    -0.32100
H1017       H  0.29315309  0.75513638  0.84828942     0.29300
H1018       H  0.03723437  0.76751853  0.91765898     0.29300
H1019       H  0.06345576  0.73648270  0.87022963     0.19900
H1020       H  0.27611690  0.79709052  0.89601465     0.19900
C1021       C  0.71578759  0.24409190  0.54917304    -0.05900
C1022       C  0.70721217  0.27517904  0.57620353    -0.17100
C1023       C  0.68788382  0.25052427  0.60946627     0.11300
C1024       C  0.67348785  0.19224814  0.61542023    -0.05900
C1025       C  0.68769296  0.16328393  0.59002436    -0.17100
C1026       C  0.71010792  0.18916325  0.55718558     0.11300
S1027       S  0.67573658  0.29275173  0.64190659    -0.32100
S1028       S  0.72496817  0.14820584  0.52553681    -0.32100
H1029       H  0.72300714  0.10468325  0.04689255     0.29300
H1030       H  0.61397840  0.25120065  0.64514548     0.29300
H1031       H  0.71092366  0.31712531  0.57049062     0.19900
H1032       H  0.67728605  0.11873275  0.59516833     0.19900
C1033       C  0.67004481  0.19954287  0.85333840    -0.05900
C1034       C  0.68877757  0.17184404  0.87738749    -0.17100
C1035       C  0.71120997  0.19617052  0.91049853     0.11300
C1036       C  0.71500066  0.24959657  0.92003034    -0.05900
C1037       C  0.70170826  0.27994200  0.89431011    -0.17100
C1038       C  0.67937066  0.25568638  0.86119985     0.11300
S1039       S  0.72756390  0.15441244  0.94112850    -0.32100
S1040       S  0.65918520  0.29670068  0.83167183    -0.32100
H1041       H  0.61116450  0.24877328  0.81463830     0.29300
H1042       H  0.73025067  0.11614668  0.91656967     0.29300
H1043       H  0.68140773  0.12872852  0.87115378     0.19900
H1044       H  0.70365437  0.32062169  0.90125388     0.19900
C1045       C  0.47051756  0.20796631  0.61041707    -0.05900
C1046       C  0.44264769  0.17745195  0.57944042    -0.17100
C1047       C  0.45419160  0.20600023  0.54684987     0.11300
C1048       C  0.49396301  0.26734909  0.54452104    -0.05900
C1049       C  0.52085000  0.29820486  0.57562735    -0.17100
C1050       C  0.50784152  0.26977160  0.60846812     0.11300
S1051       S  0.42211363  0.16022184  0.50902666    -0.32100
S1052       S  0.54238306  0.31460754  0.64645716    -0.32100
H1053       H  0.48709901  0.29235654  0.66449815     0.29300
H1054       H  0.47749183  0.18664617  0.49073436     0.29300
H1055       H  0.41419251  0.13005356  0.58028289     0.19900
H1056       H  0.55187343  0.34516782  0.57433446     0.19900
C1057       C  0.50017854  0.27837935  0.91911441    -0.05900
C1058       C  0.45706268  0.21822979  0.91881860    -0.17100
C1059       C  0.44381776  0.18469353  0.88823679     0.11300
C1060       C  0.47417579  0.21133493  0.85639119    -0.05900
C1061       C  0.51343467  0.27253836  0.85577771    -0.17100
C1062       C  0.52728637  0.30613585  0.88677355     0.11300
S1063       S  0.38801971  0.10762349  0.89193417    -0.32100
S1064       S  0.58029171  0.38415964  0.88470658    -0.32100
H1065       H  0.57609085  0.38990989  0.84817308     0.29300
H1066       H  0.36734943  0.10162756  0.85709867     0.29300
H1067       H  0.43369022  0.19667160  0.94273153     0.19900
H1068       H  0.53640546  0.29353411  0.83149913     0.19900
C1069       C  0.23032526  0.92440416  0.54972966    -0.05900
C1070       C  0.26928142  0.90194910  0.55382936    -0.17100
C1071       C  0.30147568  0.91001834  0.58525782     0.11300
C1072       C  0.29515509  0.94167153  0.61310256    -0.05900
C1073       C  0.25170148  0.95869097  0.61037729    -0.17100
C1074       C  0.22002287  0.95128516  0.57890253     0.11300
S1075       S  0.35224191  0.88179195  0.58911609    -0.32100
S1076       S  0.17204290  0.98272291  0.57483088    -0.32100
H1077       H  0.17326612  0.99728452  0.61045264     0.29300
H1078       H  0.32987346  0.84435716  0.55989373     0.29300
H1079       H  0.27813681  0.88217718  0.53152005     0.19900
H1080       H  0.24669010  0.98268543  0.63183401     0.19900
C1081       C  0.30189333  0.93791335  0.85618541    -0.05900
C1082       C  0.32947614  0.93180861  0.88651088    -0.17100
C1083       C  0.30163660  0.92061179  0.91935988     0.11300
C1084       C  0.24269895  0.91171745  0.92213195    -0.05900
C1085       C  0.21360913  0.91489145  0.89152362    -0.17100
C1086       C  0.24233385  0.92754289  0.85852223     0.11300
S1087       S  0.34506305  0.92354650  0.95727291    -0.32100
S1088       S  0.20420148  0.93477160  0.82062841    -0.32100
H1089       H  0.14747801  0.91364768  0.83673676     0.29300
H1090       H  0.25807925  0.84938288  0.46954981     0.29300
H1091       H  0.37507040  0.93946967  0.88481026     0.19900
H1092       H  0.16871191  0.90879931  0.89379293     0.19900
C1093       C  0.51098505  0.90739677  0.61474871    -0.05900
C1094       C  0.54685028  0.93954256  0.58613939    -0.17100
C1095       C  0.54192126  0.91324511  0.55360497     0.11300
C1096       C  0.50177078  0.85231399  0.54944021    -0.05900
C1097       C  0.46884795  0.81924329  0.57896061    -0.17100
C1098       C  0.47343887  0.84591068  0.61153190     0.11300
S1099       S  0.58011628  0.96076957  0.51709601    -0.32100
S1100       S  0.42490371  0.80048818  0.64649836    -0.32100
H1101       H  0.47290779  0.81772176  0.67022733     0.29300
H1102       H  0.57389044  0.01014371  0.03209088     0.29300
H1103       H  0.57529589  0.98672433  0.58853620     0.19900
H1104       H  0.43671705  0.77278406  0.57603770     0.19900
C1105       C  0.49779861  0.85268940  0.92026024    -0.05900
C1106       C  0.46014484  0.82181670  0.89181076    -0.17100
C1107       C  0.46568385  0.84904138  0.85929532     0.11300
C1108       C  0.50812017  0.90929286  0.85528937    -0.05900
C1109       C  0.54990222  0.93846650  0.88211011    -0.17100
C1110       C  0.54687154  0.91033051  0.91402934     0.11300
S1111       S  0.41478943  0.80573364  0.82485196    -0.32100
S1112       S  0.60679269  0.94908900  0.94522778    -0.32100
H1113       H  0.64442566  0.99866442  0.41948152     0.29300
H1114       H  0.39840908  0.84754306  0.81587177     0.29300
H1115       H  0.42372526  0.77696015  0.89562662     0.19900
H1116       H  0.58442825  0.98397014  0.87807693     0.19900
loop_ 
_geom_bond_atom_site_label_1 
_geom_bond_atom_site_label_2 
_geom_bond_distance 
_geom_bond_site_symmetry_2 
_ccdc_geom_bond_type 
N1            C2   1.373   1_556  A
N1          C563   1.368       .  A
N1          N822   1.431       .  S
C2            C3   1.382       .  A
C2          C538   1.491       .  S
C3          C562   1.368   1_554  A
C3            H6   1.083       .  S
C4            C5   1.383       .  A
C4          C561   1.361       .  A
C4            H7   1.083       .  S
C5          N559   1.370       .  A
C5          C547   1.491       .  S
N8           C12   1.375       .  A
N8          C567   1.377       .  A
N8          N174   1.438       .  S
C9          N566   1.373   1_554  A
C9           C10   1.384       .  A
C9          C511   1.492       .  S
C10         C569   1.368   1_554  A
C10          H13   1.083       .  S
C11          C12   1.377       .  A
C11         C568   1.356       .  A
C11          H14   1.083   1_565  S
C12         C526   1.485       .  S
O15         Zr27   2.472       .  S
O15          C17   1.293       .  A
O16         Zr53   2.410   1_565  S
O16          C17   1.284       .  A
C17         C523   1.485       .  S
O18         Zr30   2.448       .  S
O18          C20   1.286       .  A
O19         Zr54   2.425   1_565  S
O19          C20   1.289       .  A
C20         C535   1.492       .  S
O21         Zr30   2.428       .  S
O21          C23   1.284       .  A
O22         Zr53   2.412   1_565  S
O22          C23   1.285       .  A
C23         C550   1.461       .  S
O24         Zr27   2.480       .  S
O24          C26   1.295       .  A
O25         Zr54   2.399       .  S
O25          C26   1.282   1_545  A
C26         C514   1.491       .  S
Zr27         O28   2.436       .  S
Zr27         O29   2.436   1_565  S
Zr27         O33   2.383       .  S
Zr27         O34   2.379       .  S
Zr27         O57   2.378   1_565  S
Zr27         O59   2.382   1_565  S
O28          H71   0.990       .  S
O29          H70   0.990       .  S
O29          H74   0.990   1_545  S
Zr30         O31   2.437       .  S
Zr30         O32   2.435       .  S
Zr30         O34   2.371       .  S
Zr30         O33   2.383       .  S
Zr30         O58   2.383   1_565  S
Zr30         O60   2.381   1_565  S
O31          H72   0.990       .  S
O31          H75   0.990       .  S
O32          H65   0.990       .  S
O33         Zr53   2.380   1_565  S
O34         Zr54   2.376   1_565  S
O34          H61   0.966       .  S
O35         Zr47   2.481       .  S
O35          C37   1.294       .  A
O36         Zr54   2.399       .  S
O36          C37   1.284       .  A
C37         C487   1.496       .  S
O38         Zr50   2.439       .  S
O38          C40   1.285       .  A
O39         Zr53   2.414       .  S
O39          C40   1.285       .  A
C40         C475   1.465       .  S
O41         Zr50   2.443       .  S
O41          C43   1.286       .  A
O42         Zr54   2.422       .  S
O42          C43   1.286       .  A
C43         C466   1.468       .  S
O44         Zr47   2.478       .  S
O44          C46   1.294       .  A
O45         Zr53   2.419       .  S
O45          C46   1.286       .  A
C46         C502   1.493       .  S
Zr47         O48   2.435       .  S
Zr47         O49   2.434       .  S
Zr47         O55   2.364       .  S
Zr47         O56   2.371       .  S
Zr47         O59   2.384       .  S
Zr47         O57   2.386       .  S
O48          H68   0.990       .  S
O48          H73   0.990       .  S
O49          H69   0.990       .  S
Zr50         O51   2.435       .  S
Zr50         O52   2.434       .  S
Zr50         O56   2.375       .  S
Zr50         O55   2.372       .  S
Zr50         O60   2.377       .  S
Zr50         O58   2.372       .  S
O51          H67   0.990       .  S
O52          H66   0.990       .  S
O52          H76   0.990       .  S
Zr53         O56   2.372       .  S
Zr53         O58   2.380       .  S
Zr53         O59   2.384       .  S
Zr54         O55   2.377       .  S
Zr54         O57   2.384       .  S
Zr54         O60   2.370       .  S
O55          H63   0.965       .  S
O58          H62   0.966       .  S
O59          H64   0.966       .  S
N77          C81   1.368       .  A
N77          C78   1.372       .  A
N77         N243   1.433       .  S
C78          C79   1.385       .  A
C78         C499   1.501       .  S
C79          C80   1.372       .  A
C79          H82   1.082       .  S
C80          C81   1.378       .  A
C80         H641   1.082       .  S
C81        C1048   1.497       .  S
H83         C638   1.082   1_554  S
N84          C85   1.376       .  A
N84         C646   1.370       .  A
N84         N718   1.435       .  S
C85          C86   1.381       .  A
C85         C478   1.489       .  S
C86         C645   1.358       .  A
C86          H89   1.083       .  S
C87          C88   1.379       .  A
C87         C644   1.357   1_554  A
C87          H90   1.083       .  S
C88         N642   1.375   1_554  A
C88         C463   1.486       .  S
O91        Zr103   2.441       .  S
O91          C93   1.285       .  A
O92        Zr129   2.429       .  S
O92          C93   1.287       .  A
C93         C427   1.470       .  S
O94        Zr106   2.451       .  S
O94          C96   1.288       .  A
O95        Zr130   2.401       .  S
O95          C96   1.283       .  A
C96         C439   1.473       .  S
O97        Zr106   2.473       .  S
O97          C99   1.292       .  A
O98        Zr129   2.435       .  S
O98          C99   1.287       .  A
C99         C451   1.486       .  S
O100       Zr103   2.455       .  S
O100        C102   1.289       .  A
O101       Zr130   2.417       .  S
O101        C102   1.284       .  A
C102        C415   1.477       .  S
Zr103       O104   2.437       .  S
Zr103       O105   2.439       .  S
Zr103       O109   2.388       .  S
Zr103       O110   2.372       .  S
Zr103       O135   2.374   1_455  S
Zr103       O133   2.279   1_455  S
O104        H147   0.990       .  S
O105        H146   0.990       .  S
O105        H150   0.991       .  S
Zr106       O107   2.436       .  S
Zr106       O108   2.435       .  S
Zr106       O110   2.390       .  S
Zr106       O109   2.384       .  S
Zr106       O134   2.369       .  S
Zr106       O136   2.389       .  S
O107        H148   0.990       .  S
O107        H151   0.990       .  S
O108        H141   0.990       .  S
O109       Zr129   2.380       .  S
O110       Zr130   2.382       .  S
O110        H137   0.966       .  S
O111       Zr123   2.491       .  S
O111        C113   1.296       .  A
O112       Zr130   2.428   1_655  S
O112        C113   1.286       .  A
C113        C391   1.499       .  S
O114       Zr126   2.499       .  S
O114        C116   1.298       .  A
O115       Zr129   2.398   1_655  S
O115        C116   1.279       .  A
C116        C379   1.509       .  S
O117       Zr126   2.496       .  S
O117        C119   1.297       .  A
O118       Zr130   2.398   1_655  S
O118        C119   1.283       .  A
C119        C370   1.507       .  S
O120       Zr123   2.488       .  S
O120        C122   1.296       .  A
O121       Zr129   2.408   1_655  S
O121        C122   1.283       .  A
C122        C403   1.490       .  S
Zr123       O124   2.438       .  S
Zr123       O125   2.435       .  S
Zr123       O131   2.383       .  S
Zr123       O132   2.384       .  S
Zr123       O135   2.378       .  S
Zr123       O133   2.282       .  S
O124        H144   0.990       .  S
O124        H149   0.990       .  S
O125        H145   0.990       .  S
Zr126       O127   2.434       .  S
Zr126       O128   2.436       .  S
Zr126       O132   2.397       .  S
Zr126       O131   2.392       .  S
Zr126       O136   2.383   1_655  S
Zr126       O134   2.372   1_655  S
O127        H143   0.990       .  S
O128        H142   0.990       .  S
O128        H152   0.990       .  S
Zr129       O132   2.394   1_455  S
Zr129       O134   2.378       .  S
Zr129       O135   2.386   1_455  S
Zr130       O131   2.385   1_455  S
Zr130       O136   2.380       .  S
Zr130       O133   2.263   1_455  S
O131        H139   0.966       .  S
O134        H138   0.965       .  S
O135        H140   0.966       .  S
N153        C154   1.376   1_556  A
N153        C715   1.376       .  A
N153        N808   1.438       .  S
C154        C155   1.378       .  A
C154        C418   1.479       .  S
C155        C714   1.353   1_554  A
C155        H158   1.083       .  S
C156        C157   1.377       .  A
C156        C713   1.352       .  A
C156        H159   1.081       .  S
C157        N711   1.373       .  A
C157        C430   1.476       .  S
N160        C161   1.379   1_556  A
N160        C722   1.375       .  A
N160        N642   1.437       .  S
C161        C162   1.382       .  A
C161        C394   1.504       .  S
C162        C721   1.365   1_554  A
C162        H165   1.082       .  S
C163        C164   1.380       .  A
C163        C720   1.368       .  A
C163        H166   1.081       .  S
C164        N718   1.370       .  A
C164        C406   1.496       .  S
N167        C171   1.371       .  A
N167        C726   1.368       .  A
N167        N257   1.432       .  S
C168        N725   1.369   1_554  A
C168        C169   1.379       .  A
C168        C367   1.502       .  S
C169        C728   1.376   1_554  A
C169        H172   1.082       .  S
C170        C171   1.386       .  A
C170        C727   1.375       .  A
C170        H173   1.083       .  S
C171        C382   1.491       .  S
N174        C178   1.377       .  A
N174        C733   1.374       .  A
C175        N732   1.372   1_554  A
C175        C176   1.378   1_554  A
C175        C442   1.484       .  S
C176        C735   1.360       .  A
C176        H179   1.082   1_556  S
C177        C178   1.381       .  A
C177        C734   1.356       .  A
C177        H180   1.083       .  S
C178        C454   1.486       .  S
O181       Zr193   2.467       .  S
O181        C183   1.291       .  A
O182       Zr219   2.409       .  S
O182        C183   1.284       .  A
C183        C334   1.484       .  S
O184       Zr196   2.482       .  S
O184        C186   1.294       .  A
O185       Zr220   2.400       .  S
O185        C186   1.283       .  A
C186        C343   1.505       .  S
O187       Zr196   2.481       .  S
O187        C189   1.295       .  A
O188       Zr219   2.407       .  S
O188        C189   1.283       .  A
C189        C355   1.497       .  S
O190       Zr193   2.476       .  S
O190        C192   1.292       .  A
O191       Zr220   2.399       .  S
O191        C192   1.283       .  A
C192        C322   1.494       .  S
Zr193       O194   2.435       .  S
Zr193       O195   2.436       .  S
Zr193       O199   2.381       .  S
Zr193       O200   2.375       .  S
Zr193       O225   2.382       .  S
Zr193       O223   2.287       .  S
O194        H237   0.990       .  S
O195        H236   0.991       .  S
O195        H240   0.990       .  S
Zr196       O197   2.435       .  S
Zr196       O198   2.436       .  S
Zr196       O200   2.374       .  S
Zr196       O199   2.383       .  S
Zr196       O224   2.377       .  S
Zr196       O226   2.385       .  S
O197        H238   0.990       .  S
O197        H241   0.990       .  S
O198        H231   0.990       .  S
O199       Zr219   2.383       .  S
O200       Zr220   2.382       .  S
O200        H227   0.965       .  S
O201       Zr213   2.474       .  S
O201        C203   1.293       .  A
O202       Zr220   2.417       .  S
O202        C203   1.285       .  A
C203        C298   1.493       .  S
O204       Zr216   2.464       .  S
O204        C206   1.290       .  A
O205       Zr219   2.425       .  S
O205        C206   1.286       .  A
C206        C283   1.483       .  S
O207       Zr216   2.468       .  S
O207        C209   1.291       .  A
O208       Zr220   2.403       .  S
O208        C209   1.282       .  A
C209        C274   1.486       .  S
O210       Zr213   2.481       .  S
O210        C212   1.292       .  A
O211       Zr219   2.400       .  S
O211        C212   1.284       .  A
C212        C310   1.509       .  S
Zr213       O214   2.438       .  S
Zr213       O215   2.436       .  S
Zr213       O221   2.386       .  S
Zr213       O222   2.388       .  S
Zr213       O225   2.382       .  S
Zr213       O223   2.288       .  S
O214        H234   0.990       .  S
O214        H239   0.990       .  S
O215        H235   0.990       .  S
Zr216       O217   2.436       .  S
Zr216       O218   2.438       .  S
Zr216       O222   2.385       .  S
Zr216       O221   2.383       .  S
Zr216       O226   2.382       .  S
Zr216       O224   2.380       .  S
O217        H233   0.990       .  S
O218        H232   0.990       .  S
O218        H242   0.990       .  S
Zr219       O222   2.380       .  S
Zr219       O224   2.379       .  S
Zr219       O225   2.386       .  S
Zr220       O221   2.376       .  S
Zr220       O226   2.374       .  S
Zr220       O223   2.267       .  S
O221        H229   0.966       .  S
O224        H228   0.966       .  S
O225        H230   0.966       .  S
N243        C247   1.370       .  A
N243        C802   1.373       .  A
C244        N801   1.373   1_554  A
C244        C803   1.384       .  A
C244        C358   1.500       .  S
C245        C246   1.373       .  A
C245        C802   1.384       .  A
C245        H806   1.082       .  S
C246        C247   1.380       .  A
C246        H249   1.083       .  S
C247        C346   1.494       .  S
H248        C803   1.082       .  S
N250        C251   1.373       .  A
N250        C812   1.372       .  A
N250        N711   1.436       .  S
C251        C252   1.380       .  A
C251        C271   1.486       .  S
C252        C253   1.362       .  A
C252        H255   1.083       .  S
C253        C812   1.380       .  A
C253        H814   1.083       .  S
C254        N808   1.374   1_554  A
C254        C811   1.381       .  A
C254        C286   1.490       .  S
H256        C811   1.083       .  S
N257        C261   1.368       .  A
N257        C258   1.370       .  A
C258        C259   1.380       .  A
C258        C319   1.486       .  S
C259        C260   1.368       .  A
C259        H262   1.082       .  S
C260        C261   1.384       .  A
C260        H263   1.083       .  S
C261        C889   1.503       .  S
N264        C268   1.372       .  A
N264        C265   1.371       .  A
N264        N559   1.432       .  S
C265        C266   1.383       .  A
C265        C295   1.507       .  S
C266        C267   1.371       .  A
C266        H269   1.082       .  S
C267        C268   1.382       .  A
C267        H270   1.083       .  S
C268        C865   1.496       .  S
C271        C272   1.407       .  A
C271        C276   1.412       .  A
C272        C273   1.408       .  A
C272        H281   1.083       .  S
C273        C274   1.413       .  A
C273        S277   1.805       .  S
C274        C275   1.405       .  A
C275        C276   1.398       .  A
C275        H282   1.084       .  S
C276        S278   1.796       .  S
S277        H280   1.407       .  S
S278        H279   1.402       .  S
C283        C284   1.403       .  A
C283        C288   1.413       .  A
C284        C285   1.402       .  A
C284        H293   1.084       .  S
C285        C286   1.418       .  A
C285        S289   1.806       .  S
C286        C287   1.405       .  A
C287        C288   1.404       .  A
C287        H294   1.079       .  S
C288        S290   1.804       .  S
S289        H292   1.405       .  S
S290        H291   1.406       .  S
C295        C296   1.411       .  A
C295        C300   1.420       .  A
C296        C297   1.405       .  A
C296        H305   1.084       .  S
C297        C298   1.412       .  A
C297        S301   1.801       .  S
C298        C299   1.406       .  A
C299        C300   1.406       .  A
C299        H306   1.083       .  S
C300        S302   1.802       .  S
S301        H304   1.407       .  S
S302        H303   1.406       .  S
C307        C308   1.408       .  A
C307        C870   1.409       .  A
C307        C826   1.494       .  S
C308        C309   1.418       .  A
C308        H317   1.082       .  S
C309        C310   1.422       .  A
C309        S313   1.807       .  S
C310        C311   1.410       .  A
C311        C870   1.394       .  A
C311        H318   1.081       .  S
C312        C865   1.409       .  A
C312        C869   1.395       .  A
C312        S314   1.807       .  S
S313        H316   1.407       .  S
S314        H315   1.407       .  S
C319        C320   1.406       .  A
C319        C324   1.411       .  A
C320        C321   1.408       .  A
C320        H329   1.084       .  S
C321        C322   1.419       .  A
C321        S325   1.799       .  S
C322        C323   1.406       .  A
C323        C324   1.395       .  A
C323        H330   1.082       .  S
C324        S326   1.803       .  S
S325        H328   1.408       .  S
S326        H327   1.407       .  S
C331        C332   1.412       .  A
C331        C336   1.422       .  A
C331        C819   1.507       .  S
C332        C333   1.403       .  A
C332        H341   1.084       .  S
C333        C334   1.412       .  A
C333        S337   1.803       .  S
C334        C335   1.402       .  A
C335        C336   1.405       .  A
C335        H342   1.083       .  S
C336        S896   1.805       .  S
S337        H340   1.406       .  S
S338        C894   1.806       .  S
S338        H339   1.406       .  S
C343        C344   1.410       .  A
C343        C348   1.419       .  A
C344        C345   1.393       .  A
C344        H353   1.083       .  S
C345        C346   1.409       .  A
C345        S349   1.797       .  S
C346        C347   1.408       .  A
C347        C348   1.415       .  A
C347        H354   1.083       .  S
C348        S350   1.805       .  S
S349        H352   1.406       .  S
S350        H351   1.408       .  S
C355        C356   1.408       .  A
C355        C360   1.418       .  A
C356        C357   1.414       .  A
C356        H365   1.082       .  S
C357        C358   1.417       .  A
C357        S361   1.804       .  S
C358        C359   1.398       .  A
C359        C360   1.393       .  A
C359        H366   1.072       .  S
C360        S362   1.800       .  S
S361        H364   1.407       .  S
S362        H363   1.404       .  S
C367        C368   1.411       .  A
C367        C372   1.412       .  A
C368        C369   1.411       .  A
C368        H377   1.084       .  S
C369        C370   1.417       .  A
C369        S373   1.797       .  S
C370        C371   1.410       .  A
C371        C372   1.401       .  A
C371        H378   1.079       .  S
C372        S374   1.803       .  S
S373        H376   1.407       .  S
S374        H375   1.405       .  S
C379        C380   1.413       .  A
C379        C384   1.429       .  A
C380        C381   1.416       .  A
C380        H389   1.083       .  S
C381        C382   1.416       .  A
C381        S385   1.804       .  S
C382        C383   1.394       .  A
C383        C384   1.394       .  A
C383        H390   1.076       .  S
C384        S386   1.816       .  S
S385        H388   1.404       .  S
S386        H387   1.407       .  S
C391        C392   1.403       .  A
C391        C396   1.417       .  A
C392        C393   1.409       .  A
C392        H401   1.084       .  S
C393        C394   1.425       .  A
C393        S397   1.806       .  S
C394        C395   1.405       .  A
C395        C396   1.408       .  A
C395        H402   1.084       .  S
C396        S398   1.799       .  S
S397        H400   1.401       .  S
S398        H399   1.406       .  S
C403        C404   1.402       .  A
C403        C408   1.417       .  A
C404        C405   1.405       .  A
C404        H413   1.084       .  S
C405        C406   1.422       .  A
C405        S967   1.807       .  S
C406        C407   1.406       .  A
C407        C408   1.404       .  A
C407        H414   1.084       .  S
C408        S410   1.804       .  S
S409        C963   1.807       .  S
S409        H412   1.399       .  S
S410        H411   1.407       .  S
C415        C416   1.405       .  A
C415        C420   1.411       .  A
C416        C417   1.406       .  A
C416        H425   1.083       .  S
C417        C418   1.411       .  A
C417        S421   1.806       .  S
C418        C419   1.406       .  A
C419        C420   1.399       .  A
C419        H426   1.083       .  S
C420        S422   1.804       .  S
S421        H424   1.406       .  S
S422        H423   1.406       .  S
C427        C428   1.399       .  A
C427        C432   1.408       .  A
C428        C429   1.395       .  A
C428        H437   1.084       .  S
C429        C430   1.416       .  A
C429        S433   1.804       .  S
C430        C431   1.403       .  A
C431        C432   1.400       .  A
C431        H438   1.081       .  S
C432        S434   1.795       .  S
S433        H436   1.407       .  S
S434        H435   1.406       .  S
C439        C440   1.400       .  A
C439        C444   1.409       .  A
C440        C441   1.397       .  A
C440        H449   1.084       .  S
C441        C442   1.412       .  A
C441        S445   1.793       .  S
C442        C443   1.407       .  A
C443        C444   1.399       .  A
C443        H450   1.084       .  S
C444        S446   1.798       .  S
S445        H448   1.408       .  S
S446        H447   1.406       .  S
C451        C452   1.403       .  A
C451        C456   1.411       .  A
C452        C453   1.404       .  A
C452        H461   1.084       .  S
C453        C454   1.419       .  A
C453        S457   1.805       .  S
C454        C455   1.401       .  A
C455        C456   1.401       .  A
C455        H462   1.082       .  S
C456        S458   1.791       .  S
S457        H460   1.406       .  S
S458        H459   1.407       .  S
C463        C464   1.407       .  A
C463        C468   1.414       .  A
C464        C465   1.401       .  A
C464        H473   1.083       .  S
C465        C466   1.408       .  A
C465        S469   1.807       .  S
C466        C467   1.396       .  A
C467        C468   1.400       .  A
C467        H474   1.083       .  S
C468        S470   1.791       .  S
S469        H472   1.407       .  S
S470       H1029   1.407       .  S
H471       S1028   1.407       .  S
C475        C476   1.394       .  A
C475        C480   1.411       .  A
C476        C477   1.397       .  A
C476        H485   1.084       .  S
C477        C478   1.414       .  A
C477        S481   1.787       .  S
C478        C479   1.408       .  A
C479        C480   1.400       .  A
C479        H486   1.084       .  S
C480        S482   1.804       .  S
S481        H484   1.407       .  S
S482        H483   1.404       .  S
C487        C488   1.408       .  A
C487        C492   1.417       .  A
C488        C489   1.397       .  A
C488        H497   1.084       .  S
C489        C490   1.412       .  A
C489        S493   1.797       .  S
C490        C491   1.408       .  A
C490        C639   1.495       .  S
C491        C492   1.407       .  A
C491        H498   1.083       .  S
C492        S494   1.798       .  S
S493        H496   1.406   1_554  S
S494        H495   1.408       .  S
C499        C500   1.404       .  A
C499        C504   1.421       .  A
C500        C501   1.400       .  A
C500        H509   1.077       .  S
C501        C502   1.415       .  A
C501        S505   1.805       .  S
C502        C503   1.407       .  A
C503        C504   1.410       .  A
C503        H510   1.083       .  S
C504        S506   1.807       .  S
S505        H508   1.407       .  S
S506        H507   1.405       .  S
C511        C512   1.397       .  A
C511        C516   1.415       .  A
C512        C513   1.396       .  A
C512        H521   1.072       .  S
C513        C514   1.419       .  A
C513        S517   1.808       .  S
C514        C515   1.407       .  A
C515        C516   1.411       .  A
C515        H522   1.082       .  S
C516        S518   1.806       .  S
S517        H520   1.407       .  S
S518        H519   1.406       .  S
C523        C524   1.406       .  A
C523        C528   1.410       .  A
C524        C525   1.402       .  A
C524        H533   1.084       .  S
C525        C526   1.414       .  A
C525        S529   1.802       .  S
C526        C527   1.407       .  A
C527        C528   1.405       .  A
C527        H534   1.082       .  S
C528        S530   1.806       .  S
S529       H1090   1.401       .  S
S530        H531   1.407       .  S
H532       S1087   1.407       .  S
C535        C536   1.400       .  A
C535        C540   1.419       .  A
C536        C537   1.395       .  A
C536        H545   1.083       .  S
C537        C538   1.413       .  A
C537        S541   1.796       .  S
C538        C539   1.409       .  A
C539        C540   1.410       .  A
C539        H546   1.084       .  S
C540        S542   1.799       .  S
S541       H1102   1.407   1_565  S
S542        H543   1.405       .  S
H544       S1099   1.407   1_545  S
C547        C548   1.410       .  A
C547        C552   1.419       .  A
C548        C549   1.395       .  A
C548        H557   1.084       .  S
C549        C550   1.406       .  A
C549        S553   1.803       .  S
C550        C551   1.395       .  A
C551        C552   1.398       .  A
C551        H558   1.083       .  S
C552        S554   1.797       .  S
S553        H556   1.407       .  S
S554       H1113   1.406       .  S
H555       S1112   1.406   1_545  S
N559        C560   1.372       .  A
C560        C561   1.379       .  A
C560       C1096   1.486       .  S
C561        H564   1.082       .  S
C562        C563   1.383       .  A
C562        H565   1.083       .  S
C563       C1105   1.496       .  S
N566        C570   1.368       .  A
N566        N732   1.436       .  S
C567        C568   1.382       .  A
C567       C1069   1.489       .  S
C568        H571   1.083   1_565  S
C569        C570   1.378       .  A
C569        H572   1.083       .  S
C570       C1084   1.485       .  S
O573       Zr585   2.458       .  S
O573        C575   1.290       .  A
O574       Zr611   2.391       .  S
O574        C575   1.282   1_545  A
C575       C1081   1.481       .  S
O576       Zr588   2.445       .  S
O576        C578   1.286       .  A
O577       Zr612   2.423   1_565  S
O577        C578   1.288       .  A
C578       C1093   1.481       .  S
O579       Zr588   2.444       .  S
O579        C581   1.287       .  A
O580       Zr611   2.416   1_565  S
O580        C581   1.285       .  A
C581       C1108   1.474       .  S
O582       Zr585   2.463       .  S
O582        C584   1.291       .  A
O583       Zr612   2.430   1_565  S
O583        C584   1.287       .  A
C584       C1072   1.485       .  S
Zr585       O586   2.435       .  S
Zr585       O587   2.435       .  S
Zr585       O591   2.382       .  S
Zr585       O592   2.372       .  S
Zr585       O615   2.378   1_565  S
Zr585       O617   2.383   1_565  S
O586        H629   0.990       .  S
O587        H628   0.990   1_565  S
O587        H632   0.990       .  S
Zr588       O589   2.436       .  S
Zr588       O590   2.434       .  S
Zr588       O592   2.378       .  S
Zr588       O591   2.378       .  S
Zr588       O616   2.379   1_565  S
Zr588       O618   2.377   1_565  S
O589        H630   0.990       .  S
O589        H633   0.990       .  S
O590        H623   0.990       .  S
O591       Zr611   2.377   1_565  S
O592       Zr612   2.372   1_565  S
O592        H619   0.966       .  S
O593       Zr605   2.478       .  S
O593        C595   1.294       .  A
O594       Zr612   2.413       .  S
O594        C595   1.286       .  A
C595       C1045   1.492       .  S
O596       Zr608   2.448       .  S
O596        C598   1.287       .  A
O597       Zr611   2.414       .  S
O597        C598   1.284       .  A
C598       C1033   1.471       .  S
O599       Zr608   2.425       .  S
O599        C601   1.283       .  A
O600       Zr612   2.420       .  S
O600        C601   1.287       .  A
C601       C1024   1.458       .  S
O602       Zr605   2.488       .  S
O602        C604   1.296       .  A
O603       Zr611   2.410       .  S
O603        C604   1.284       .  A
C604       C1060   1.494       .  S
Zr605       O606   2.439       .  S
Zr605       O607   2.434       .  S
Zr605       O613   2.368       .  S
Zr605       O614   2.372       .  S
Zr605       O617   2.377       .  S
Zr605       O615   2.390       .  S
O606        H626   0.990       .  S
O606        H631   0.990       .  S
O607        H627   0.990       .  S
Zr608       O609   2.434       .  S
Zr608       O610   2.435       .  S
Zr608       O614   2.368       .  S
Zr608       O613   2.371       .  S
Zr608       O618   2.385       .  S
Zr608       O616   2.368       .  S
O609        H625   0.990       .  S
O610        H624   0.990       .  S
O610        H634   0.990       .  S
Zr611       O614   2.368       .  S
Zr611       O616   2.373       .  S
Zr611       O617   2.384       .  S
Zr612       O613   2.382       .  S
Zr612       O615   2.384       .  S
Zr612       O618   2.379       .  S
O613        H621   0.962       .  S
O616        H620   0.966       .  S
O617        H622   0.966       .  S
N635        C639   1.369   1_556  A
N635        C636   1.370       .  A
N635        N801   1.433       .  S
C636        C637   1.384       .  A
C636       C1057   1.501       .  S
C637        C638   1.374       .  A
C637        H640   1.082       .  S
C638        C639   1.378   1_556  A
N642        C643   1.379       .  A
C643        C644   1.380       .  A
C643       C1036   1.492       .  S
C644        H647   1.083       .  S
C645        C646   1.378       .  A
C645        H648   1.083       .  S
C646       C1021   1.481       .  S
O649       Zr661   2.457       .  S
O649        C651   1.289       .  A
O650       Zr687   2.427   1_455  S
O650        C651   1.287       .  A
C651        C985   1.480       .  S
O652       Zr664   2.457       .  S
O652        C654   1.289       .  A
O653       Zr688   2.421   1_455  S
O653        C654   1.284       .  A
C654        C997   1.478       .  S
O655       Zr664   2.442       .  S
O655        C657   1.286       .  A
O656       Zr687   2.412   1_455  S
O656        C657   1.285       .  A
C657       C1009   1.469       .  S
O658       Zr661   2.448       .  S
O658        C660   1.288       .  A
O659       Zr688   2.423   1_455  S
O659        C660   1.286       .  A
C660        C973   1.478       .  S
Zr661       O662   2.433       .  S
Zr661       O663   2.437       .  S
Zr661       O667   2.380       .  S
Zr661       O668   2.388       .  S
Zr661       O691   2.373   1_455  S
Zr661       O693   2.371   1_455  S
O662        H705   0.990       .  S
O663        H704   0.990       .  S
O663        H708   0.990       .  S
Zr664       O665   2.436       .  S
Zr664       O666   2.434       .  S
Zr664       O668   2.374       .  S
Zr664       O667   2.383       .  S
Zr664       O692   2.376       .  S
Zr664       O694   2.367       .  S
O665        H706   0.990       .  S
O665        H709   0.990       .  S
O666        H699   0.990       .  S
O667       Zr687   2.375   1_455  S
O668       Zr688   2.376   1_455  S
O668        H695   0.966       .  S
O669       Zr681   2.488       .  S
O669        C671   1.296       .  A
O670       Zr688   2.417       .  S
O670        C671   1.285       .  A
C671        C949   1.493       .  S
O672       Zr684   2.508       .  S
O672        C674   1.300       .  A
O673       Zr687   2.398       .  S
O673        C674   1.279       .  A
C674        C937   1.515       .  S
O675       Zr684   2.491       .  S
O675        C677   1.296       .  A
O676       Zr688   2.388       .  S
O676        C677   1.282       .  A
C677        C928   1.499       .  S
O678       Zr681   2.488       .  S
O678        C680   1.297       .  A
O679       Zr687   2.413       .  S
O679        C680   1.284       .  A
C680        C961   1.489       .  S
Zr681       O682   2.437       .  S
Zr681       O683   2.434       .  S
Zr681       O689   2.377       .  S
Zr681       O690   2.384       .  S
Zr681       O693   2.384       .  S
Zr681       O691   2.380       .  S
O682        H702   0.990       .  S
O682        H707   0.990       .  S
O683        H703   0.990       .  S
Zr684       O685   2.434       .  S
Zr684       O686   2.435       .  S
Zr684       O690   2.384       .  S
Zr684       O689   2.394       .  S
Zr684       O694   2.385   1_655  S
Zr684       O692   2.375   1_655  S
O685        H701   0.990       .  S
O686        H700   0.990       .  S
O686        H710   0.990       .  S
Zr687       O690   2.382       .  S
Zr687       O692   2.380   1_655  S
Zr687       O693   2.379       .  S
Zr688       O689   2.392       .  S
Zr688       O691   2.373       .  S
Zr688       O694   2.377   1_655  S
O689        H697   0.966       .  S
O692        H696   0.966       .  S
O693        H698   0.966       .  S
N711        C712   1.373       .  A
C712        C713   1.377       .  A
C712        C976   1.476       .  S
C713        H716   1.083       .  S
C714        C715   1.378       .  A
C714        H717   1.083       .  S
C715        C988   1.479       .  S
N718        C719   1.376       .  A
C719        C720   1.382       .  A
C719        C952   1.504       .  S
C720        H723   1.081       .  S
C721        C722   1.380       .  A
C721        H724   1.082       .  S
C722        C964   1.496       .  S
N725        C729   1.372       .  A
N725        N815   1.432       .  S
C726        C727   1.379       .  A
C726        C925   1.496       .  S
C727        H730   1.083       .  S
C728        C729   1.386       .  A
C728        H731   1.083       .  S
C729        C940   1.497       .  S
N732        C736   1.374       .  A
C733        C734   1.381       .  A
C733       C1000   1.486       .  S
C734        H737   1.083       .  S
C735        C736   1.383       .  A
C735        H738   1.083       .  S
C736       C1012   1.493       .  S
O739       Zr751   2.469       .  S
O739        C741   1.291       .  A
O740       Zr777   2.405       .  S
O740        C741   1.283       .  A
C741        C892   1.482       .  S
O742       Zr754   2.487       .  S
O742        C744   1.294       .  A
O743       Zr778   2.399       .  S
O743        C744   1.283       .  A
C744        C901   1.502       .  S
O745       Zr754   2.485       .  S
O745        C747   1.296       .  A
O746       Zr777   2.411       .  S
O746        C747   1.284       .  A
C747        C913   1.497       .  S
O748       Zr751   2.482       .  S
O748        C750   1.294       .  A
O749       Zr778   2.409       .  S
O749        C750   1.285       .  A
C750        C880   1.503       .  S
Zr751       O752   2.434       .  S
Zr751       O753   2.436       .  S
Zr751       O757   2.383       .  S
Zr751       O758   2.376       .  S
Zr751       O783   2.380       .  S
Zr751       O781   2.287       .  S
O752        H795   0.990       .  S
O753        H794   0.990       .  S
O753        H798   0.991       .  S
Zr754       O755   2.437       .  S
Zr754       O756   2.435       .  S
Zr754       O758   2.377       .  S
Zr754       O757   2.386       .  S
Zr754       O782   2.376       .  S
Zr754       O784   2.387       .  S
O755        H796   0.990       .  S
O755        H799   0.990       .  S
O756        H789   0.990       .  S
O757       Zr777   2.383       .  S
O758       Zr778   2.382       .  S
O758        H785   0.965       .  S
O759       Zr771   2.478       .  S
O759        C761   1.294       .  A
O760       Zr778   2.420       .  S
O760        C761   1.286       .  A
C761        C856   1.498       .  S
O762       Zr774   2.471       .  S
O762        C764   1.293       .  A
O763       Zr777   2.415       .  S
O763        C764   1.284       .  A
C764        C841   1.481       .  S
O765       Zr774   2.482       .  S
O765        C767   1.294       .  A
O766       Zr778   2.403       .  S
O766        C767   1.282       .  A
C767        C832   1.487       .  S
O768       Zr771   2.486       .  S
O768        C770   1.294       .  A
O769       Zr777   2.403       .  S
O769        C770   1.284       .  A
C770        C868   1.511       .  S
Zr771       O772   2.439       .  S
Zr771       O773   2.435       .  S
Zr771       O779   2.382       .  S
Zr771       O780   2.384       .  S
Zr771       O783   2.383       .  S
Zr771       O781   2.293       .  S
O772        H792   0.990       .  S
O772        H797   0.990       .  S
O773        H793   0.990       .  S
Zr774       O775   2.434       .  S
Zr774       O776   2.437       .  S
Zr774       O780   2.385       .  S
Zr774       O779   2.382       .  S
Zr774       O784   2.383       .  S
Zr774       O782   2.380       .  S
O775        H791   0.990       .  S
O776        H790   0.989       .  S
O776        H800   0.990       .  S
Zr777       O780   2.377       .  S
Zr777       O782   2.379       .  S
Zr777       O783   2.385       .  S
Zr778       O779   2.378       .  S
Zr778       O784   2.380       .  S
Zr778       O781   2.270       .  S
O779        H787   0.966       .  S
O782        H786   0.966       .  S
O783        H788   0.966       .  S
N801        C805   1.371       .  A
C802        C916   1.502       .  S
C803        C804   1.374   1_554  A
C804        C805   1.380       .  A
C804        H807   1.083       .  S
C805        C904   1.500       .  S
N808        C809   1.374       .  A
C809        C810   1.380       .  A
C809        C829   1.492       .  S
C810        C811   1.361   1_556  A
C810        H813   1.083       .  S
C812        C844   1.486       .  S
N815        C819   1.370   1_556  A
N815        C816   1.371       .  A
C816        C817   1.380       .  A
C816        C877   1.493       .  S
C817        C818   1.370   1_556  A
C817        H820   1.081       .  S
C818        C819   1.384       .  A
C818        H821   1.082       .  S
N822        C826   1.370   1_556  A
N822        C823   1.370       .  A
C823        C824   1.383       .  A
C823        C853   1.509       .  S
C824        C825   1.373       .  A
C824        H827   1.082       .  S
C825        C826   1.383   1_556  A
C825        H828   1.083   1_556  S
C829        C830   1.409       .  A
C829        C834   1.413       .  A
C830        C831   1.408       .  A
C830        H839   1.082       .  S
C831        C832   1.411       .  A
C831        S835   1.805       .  S
C832        C833   1.406       .  A
C833        C834   1.401       .  A
C833        H840   1.084       .  S
C834        S836   1.796       .  S
S835        H838   1.407       .  S
S836        H837   1.399       .  S
C841        C842   1.403       .  A
C841        C846   1.415       .  A
C842        C843   1.402       .  A
C842        H851   1.084       .  S
C843        C844   1.416       .  A
C843        S847   1.805       .  S
C844        C845   1.404       .  A
C845        C846   1.402       .  A
C845        H852   1.079       .  S
C846        S848   1.805       .  S
S847        H850   1.406       .  S
S848        H849   1.406       .  S
C853        C854   1.411       .  A
C853        C858   1.419       .  A
C854        C855   1.406       .  A
C854        H863   1.084       .  S
C855        C856   1.414       .  A
C855        S859   1.800       .  S
C856        C857   1.407       .  A
C857        C858   1.408       .  A
C857        H864   1.084       .  S
C858        S860   1.801       .  S
S859        H862   1.407       .  S
S860        H861   1.405       .  S
C865        C866   1.408       .  A
C866        C867   1.418       .  A
C866        H875   1.082       .  S
C867        C868   1.423       .  A
C867        S871   1.806       .  S
C868        C869   1.411       .  A
C869        H876   1.081       .  S
C870        S872   1.807       .  S
S871        H874   1.407       .  S
S872        H873   1.406       .  S
C877        C878   1.406       .  A
C877        C882   1.412       .  A
C878        C879   1.411       .  A
C878        H887   1.084       .  S
C879        C880   1.421       .  A
C879        S883   1.799       .  S
C880        C881   1.408       .  A
C881        C882   1.399       .  A
C881        H888   1.082       .  S
C882        S884   1.804       .  S
S883        H886   1.407       .  S
S884        H885   1.406       .  S
C889        C890   1.410       .  A
C889        C894   1.422       .  A
C890        C891   1.400       .  A
C890        H899   1.084       .  S
C891        C892   1.410       .  A
C891        S895   1.803       .  S
C892        C893   1.403       .  A
C893        C894   1.405       .  A
C893        H900   1.083       .  S
S895        H898   1.406       .  S
S896        H897   1.406       .  S
C901        C902   1.407       .  A
C901        C906   1.416       .  A
C902        C903   1.396       .  A
C902        H911   1.082       .  S
C903        C904   1.410       .  A
C903        S907   1.798       .  S
C904        C905   1.411       .  A
C905        C906   1.416       .  A
C905        H912   1.083       .  S
C906        S908   1.804       .  S
S907        H910   1.406       .  S
S908        H909   1.407       .  S
C913        C914   1.407       .  A
C913        C918   1.418       .  A
C914        C915   1.414       .  A
C914        H923   1.082       .  S
C915        C916   1.418       .  A
C915        S919   1.806       .  S
C916        C917   1.401       .  A
C917        C918   1.396       .  A
C917        H924   1.077       .  S
C918        S920   1.801       .  S
S919        H922   1.407       .  S
S920        H921   1.405       .  S
C925        C926   1.411       .  A
C925        C930   1.412       .  A
C926        C927   1.409       .  A
C926        H935   1.084       .  S
C927        C928   1.415       .  A
C927        S931   1.797       .  S
C928        C929   1.408       .  A
C929        C930   1.396       .  A
C929        H936   1.078       .  S
C930        S932   1.806       .  S
S931        H934   1.407       .  S
S932        H933   1.406       .  S
C937        C938   1.414       .  A
C937        C942   1.430       .  A
C938        C939   1.418       .  A
C938        H947   1.083       .  S
C939        C940   1.417       .  A
C939        S943   1.804       .  S
C940        C941   1.394       .  A
C941        C942   1.397       .  A
C941        H948   1.074       .  S
C942        S944   1.816       .  S
S943        H946   1.404       .  S
S944        H945   1.407       .  S
C949        C950   1.401       .  A
C949        C954   1.414       .  A
C950        C951   1.407       .  A
C950        H959   1.084       .  S
C951        C952   1.426       .  A
C951        S955   1.806       .  S
C952        C953   1.407       .  A
C953        C954   1.406       .  A
C953        H960   1.084       .  S
C954        S956   1.800       .  S
S955        H958   1.399       .  S
S956        H957   1.407       .  S
C961        C962   1.401       .  A
C961        C966   1.417       .  A
C962        C963   1.405       .  A
C962        H971   1.084       .  S
C963        C964   1.423       .  A
C964        C965   1.406       .  A
C965        C966   1.406       .  A
C965        H972   1.084       .  S
C966        S968   1.804       .  S
S967        H970   1.398       .  S
S968        H969   1.407       .  S
C973        C974   1.405       .  A
C973        C978   1.412       .  A
C974        C975   1.406       .  A
C974        H983   1.082       .  S
C975        C976   1.411       .  A
C975        S979   1.806       .  S
C976        C977   1.404       .  A
C977        C978   1.396       .  A
C977        H984   1.083       .  S
C978        S980   1.803       .  S
S979        H982   1.406       .  S
S980        H981   1.407       .  S
C985        C986   1.401       .  A
C985        C990   1.412       .  A
C986        C987   1.401       .  A
C986        H995   1.084       .  S
C987        C988   1.416       .  A
C987        S991   1.805       .  S
C988        C989   1.404       .  A
C989        C990   1.403       .  A
C989        H996   1.083       .  S
C990        S992   1.802       .  S
S991        H994   1.406       .  S
S992        H993   1.407       .  S
C997        C998   1.400       .  A
C997       C1002   1.412       .  A
C998        C999   1.399       .  A
C998       H1007   1.085       .  S
C999       C1000   1.420       .  A
C999       S1003   1.808       .  S
C1000      C1001   1.406       .  A
C1001      C1002   1.405       .  A
C1001      H1008   1.084       .  S
C1002      S1004   1.802       .  S
S1003      H1006   1.404       .  S
S1004      H1005   1.406       .  S
C1009      C1010   1.397       .  A
C1009      C1014   1.403       .  A
C1010      C1011   1.400       .  A
C1010      H1019   1.083       .  S
C1011      C1012   1.416       .  A
C1011      S1015   1.795       .  S
C1012      C1013   1.409       .  A
C1013      C1014   1.401       .  A
C1013      H1020   1.084       .  S
C1014      S1016   1.801       .  S
S1015      H1018   1.407       .  S
S1016      H1017   1.405       .  S
C1021      C1022   1.404       .  A
C1021      C1026   1.415       .  A
C1022      C1023   1.391       .  A
C1022      H1031   1.084       .  S
C1023      C1024   1.407       .  A
C1023      S1027   1.797       .  S
C1024      C1025   1.393       .  A
C1025      C1026   1.397       .  A
C1025      H1032   1.084       .  S
C1026      S1028   1.788       .  S
S1027      H1030   1.403       .  S
C1033      C1034   1.397       .  A
C1033      C1038   1.411       .  A
C1034      C1035   1.402       .  A
C1034      H1043   1.084       .  S
C1035      C1036   1.414       .  A
C1035      S1039   1.791       .  S
C1036      C1037   1.409       .  A
C1037      C1038   1.401       .  A
C1037      H1044   1.084       .  S
C1038      S1040   1.806       .  S
S1039      H1042   1.407       .  S
S1040      H1041   1.403       .  S
C1045      C1046   1.406       .  A
C1045      C1050   1.416       .  A
C1046      C1047   1.399       .  A
C1046      H1055   1.084       .  S
C1047      C1048   1.414       .  A
C1047      S1051   1.794       .  S
C1048      C1049   1.407       .  A
C1049      C1050   1.405       .  A
C1049      H1056   1.084       .  S
C1050      S1052   1.798       .  S
S1051      H1054   1.407       .  S
S1052      H1053   1.407       .  S
C1057      C1058   1.403       .  A
C1057      C1062   1.418       .  A
C1058      C1059   1.400       .  A
C1058      H1067   1.077       .  S
C1059      C1060   1.416       .  A
C1059      S1063   1.806       .  S
C1060      C1061   1.407       .  A
C1061      C1062   1.413       .  A
C1061      H1068   1.083       .  S
C1062      S1064   1.807       .  S
S1063      H1066   1.407       .  S
S1064      H1065   1.407       .  S
C1069      C1070   1.405       .  A
C1069      C1074   1.416       .  A
C1070      C1071   1.408       .  A
C1070      H1079   1.081       .  S
C1071      C1072   1.412       .  A
C1071      S1075   1.805       .  S
C1072      C1073   1.401       .  A
C1073      C1074   1.405       .  A
C1073      H1080   1.083       .  S
C1074      S1076   1.806       .  S
S1075      H1078   1.407       .  S
S1076      H1077   1.407       .  S
C1081      C1082   1.404       .  A
C1081      C1086   1.412       .  A
C1082      C1083   1.393       .  A
C1082      H1091   1.083       .  S
C1083      C1084   1.412       .  A
C1083      S1087   1.800       .  S
C1084      C1085   1.408       .  A
C1085      C1086   1.406       .  A
C1085      H1092   1.083       .  S
C1086      S1088   1.805       .  S
S1088      H1089   1.407       .  S
C1093      C1094   1.397       .  A
C1093      C1098   1.414       .  A
C1094      C1095   1.397       .  A
C1094      H1103   1.084       .  S
C1095      C1096   1.414       .  A
C1095      S1099   1.789       .  S
C1096      C1097   1.407       .  A
C1097      C1098   1.404       .  A
C1097      H1104   1.084       .  S
C1098      S1100   1.797       .  S
S1100      H1101   1.405       .  S
C1105      C1106   1.407       .  A
C1105      C1110   1.420       .  A
C1106      C1107   1.398       .  A
C1106      H1115   1.084       .  S
C1107      C1108   1.409       .  A
C1107      S1111   1.798       .  S
C1108      C1109   1.398       .  A
C1109      C1110   1.402       .  A
C1109      H1116   1.083       .  S
C1110      S1112   1.800       .  S
S1111      H1114   1.407       .  S
