geometry optimzed in LAMMPS
_audit_creation_date              2020-12-01 
_audit_creation_method            'lammps2cif' 
_symmetry_space_group_name_H-M    'P1' 
_symmetry_Int_Tables_number       1 
_symmetry_cell_setting            triclinic 
loop_ 
_symmetry_equiv_pos_as_xyz 
  x,y,z 
_cell_length_a                    37.74185065 
_cell_length_b                    38.11587738548276 
_cell_length_c                    33.620435426687614 
_cell_angle_alpha                 89.75991939349517 
_cell_angle_beta                  91.01789236793482 
_cell_angle_gamma                 120.15637719579625 
loop_ 
_atom_site_label 
_atom_site_type_symbol 
_atom_site_fract_x 
_atom_site_fract_y 
_atom_site_fract_z 
_atom_site_charge 
Fe1        Fe  0.15023422  0.29163433  0.24332289     1.65800
Fe2        Fe  0.14696335  0.20002500  0.24635167     1.73200
Fe3        Fe  0.05744462  0.20288428  0.24691563     1.54400
O4          O  0.05693582  0.24193396  0.28919079    -0.79500
O5          O  0.10969624  0.16080180  0.20229857    -0.77800
O6          O  0.11822843  0.29852086  0.28883899    -0.82000
O7          O  0.11178157  0.29583047  0.20138964    -0.76900
O8          O  0.05360298  0.16461452  0.29255967    -0.78600
O9          O  0.18795537  0.23492443  0.20296327    -0.81400
C10         C  0.07535669  0.27283221  0.18891352     0.99400
C11         C  0.08224386  0.27731662  0.30189395     1.06800
O12         O  0.11816940  0.23150450  0.24547949    -1.10400
O13         O  0.18765009  0.23524705  0.29075090    -0.72800
O14         O  0.19317079  0.29615446  0.28524520    -0.76300
O15         O  0.05254928  0.23714443  0.20163601    -0.77000
C16         C  0.20354404  0.27219367  0.30075629     0.98300
O17         O  0.18643740  0.29251223  0.19751726    -0.74900
O18         O  0.11034868  0.16045751  0.28979567    -0.80100
C19         C  0.07287581  0.14739136  0.19105524     1.00900
C20         C  0.07567022  0.15005997  0.30421482     1.06800
O21         O  0.05019128  0.16006086  0.20481760    -0.75800
C22         C  0.19965287  0.26925792  0.18728216     1.05100
C23         C  0.00719626  0.01033097  0.05470130     0.88700
C24         C  0.02505171  0.32440199  0.07607934    -0.51600
C25         C  0.02360363  0.32152105  0.11649521     0.11600
C26         C  0.00688695  0.00740248  0.13222716     0.22500
C27         C  0.30047013  0.31173216  0.07534530    -0.52300
C28         C  0.29866293  0.31346148  0.11569723     0.11700
C29         C  0.02708271  0.05220588  0.07508966    -0.51800
C30         C  0.02666718  0.05047917  0.11549633     0.12300
H31         H  0.04120672  0.31344559  0.05816020     0.16800
H32         H  0.00658905  0.00630080  0.16529040     0.02500
H33         H  0.27335943  0.29780893  0.05612456     0.17100
H34         H  0.03979716  0.08067900  0.05903393     0.16900
C35         C  0.01046826  0.01595140  0.44320093     0.88700
C36         C  0.03021669  0.05765034  0.42272330    -0.51600
C37         C  0.03005988  0.05550094  0.38225835     0.11600
C38         C  0.01035571  0.01215198  0.36567355     0.22500
C39         C  0.29735008  0.32343312  0.42004537    -0.52300
C40         C  0.29982659  0.32085969  0.37984847     0.11700
C41         C  0.03829168  0.32116419  0.42175141    -0.51800
C42         C  0.03761290  0.32509207  0.38152679     0.12300
H43         H  0.04295125  0.08626664  0.43875062     0.16800
H44         H  0.01023628  0.01061312  0.33264040     0.02500
H45         H  0.26839404  0.31139645  0.43524646     0.17100
H46         H  0.05391359  0.30716883  0.43646662     0.16900
Fe47       Fe  0.18688601  0.04788175  0.75576771     1.65800
Fe48       Fe  0.18495068  0.13708005  0.75395858     1.73200
Fe49       Fe  0.27720363  0.13908164  0.75514967     1.54400
O50         O  0.28273683  0.10411096  0.79974016    -0.79500
O51         O  0.21970971  0.17613970  0.70929269    -0.77800
O52         O  0.22324723  0.04568476  0.80137378    -0.82000
O53         O  0.22365285  0.04348701  0.71355689    -0.76900
O54         O  0.28114436  0.17913315  0.79861170    -0.78600
O55         O  0.14382479  0.09936212  0.71047493    -0.81400
C56         C  0.25897620  0.06683575  0.69994013     0.99400
C57         C  0.25965153  0.06898645  0.81380958     1.06800
O58         O  0.21636205  0.10805013  0.75496865    -1.10400
O59         O  0.14587821  0.10202462  0.79852093    -0.72800
O60         O  0.14584817  0.04349301  0.79803495    -0.76300
O61         O  0.28159696  0.10322519  0.71157587    -0.77000
C62         C  0.13310994  0.06626874  0.81096903     0.98300
O63         O  0.14666388  0.04226227  0.71023510    -0.74900
O64         O  0.22179806  0.17876853  0.79715918    -0.80100
C65         C  0.25579625  0.18965781  0.69688194     1.00900
C66         C  0.25795078  0.19189526  0.81056760     1.06800
O67         O  0.27994566  0.17832376  0.71069774    -0.75800
C68         C  0.13242832  0.06406668  0.69718240     1.05100
C69         C  0.98987016  0.98590502  0.94012163     0.88700
C70         C  0.31160382  0.29414991  0.92299186    -0.51600
C71         C  0.31077108  0.29175639  0.88249706     0.11600
C72         C  0.99188743  0.99153967  0.86272546     0.22500
C73         C  0.03351273  0.00919883  0.92348640    -0.52300
C74         C  0.03433500  0.01227932  0.88306051     0.11700
C75         C  0.30537484  0.01447169  0.92944248    -0.51800
C76         C  0.30709390  0.01797645  0.88894659     0.12300
H77         H  0.29678863  0.26762556  0.94193737     0.16800
H78         H  0.99287964  0.99385877  0.82973643     0.02500
H79         H  0.06112631  0.02222352  0.94200400     0.17100
H80         H  0.29105682  0.02707937  0.94781253     0.16900
C81         C  0.99381867  0.98882285  0.55737228     0.88700
C82         C  0.30416523  0.01997452  0.58188300    -0.51600
C83         C  0.30416913  0.01713844  0.62232697     0.11600
C84         C  0.98761505  0.32278282  0.63420240     0.22500
C85         C  0.03670574  0.01181846  0.57738189    -0.52300
C86         C  0.03576040  0.01218372  0.61801926     0.11700
C87         C  0.29766833  0.27967674  0.57650431    -0.51800
C88         C  0.29921236  0.28290408  0.61697436     0.12300
H89         H  0.29092286  0.03573287  0.56614313     0.16800
H90         H  0.98690446  0.31921012  0.66707643     0.02500
H91         H  0.06504380  0.02634828  0.56093880     0.17100
H92         H  0.28369888  0.25062832  0.56112055     0.16900
C93         C  0.29014801  0.25391063  0.86068216    -0.11100
C94         C  0.27429602  0.22422338  0.83947738    -0.12700
C95         C  0.10116660  0.04979277  0.83983548    -0.11100
C96         C  0.07175162  0.03344303  0.86100395    -0.12700
C97         C  0.28997522  0.03851258  0.86623504    -0.11100
C98         C  0.27607201  0.05383935  0.84402396    -0.12700
C99         C  0.28315767  0.24815080  0.64312029    -0.11100
C100        C  0.27046044  0.22044864  0.66656436    -0.12700
C101        C  0.07217008  0.03192274  0.64328060    -0.11100
C102        C  0.10075142  0.04732712  0.66669526    -0.12700
C103        C  0.28760554  0.03564225  0.64791368    -0.11100
C104        C  0.27446925  0.05066725  0.67068839    -0.12700
C105        C  0.99406620  0.98647631  0.51210923    -0.14300
C106        C  0.01070336  0.01927901  0.48843232    -0.29400
H107        H  0.31108971  0.01996512  0.50288561     0.14800
H108        H  0.03094591  0.31745878  0.50083921     0.15300
C109        C  0.00739778  0.01386344  0.00964570    -0.14300
C110        C  0.98906291  0.98156237  0.98512800    -0.29400
H111        H  0.35585124  0.04788831  0.00448482     0.14800
H112        H  0.97902027  0.28634917  0.00136970     0.15300
C113        C  0.05582112  0.30924653  0.35498843    -0.11100
C114        C  0.06891818  0.29475989  0.33170773    -0.11900
C115        C  0.26429265  0.30243011  0.35372793    -0.11100
C116        C  0.23573818  0.28806411  0.33043957    -0.12700
C117        C  0.06003116  0.11903131  0.33417891    -0.11100
C118        C  0.04655690  0.09086824  0.35703602    -0.12700
C119        C  0.04302927  0.30336118  0.13918297    -0.11100
C120        C  0.05840522  0.28875905  0.16030276    -0.12700
C121        C  0.23115958  0.28342839  0.15799336    -0.11100
C122        C  0.26070950  0.29666769  0.13697152    -0.12700
C123        C  0.04236300  0.08610180  0.14033290    -0.11100
C124        C  0.05576457  0.11503493  0.16234550    -0.12700
Fe125      Fe  0.14419415  0.62283503  0.25346897     1.65800
Fe126      Fe  0.14206591  0.53156256  0.25442434     1.73200
Fe127      Fe  0.05216081  0.53343573  0.25716789     1.54400
O128        O  0.05093932  0.57298303  0.29881989    -0.79500
O129        O  0.10455607  0.49228665  0.21005713    -0.77800
O130        O  0.11223413  0.62929701  0.29965444    -0.82000
O131        O  0.10532882  0.62623884  0.21135274    -0.76900
O132        O  0.05029862  0.49686293  0.30424889    -0.78600
O133        O  0.18235483  0.56715419  0.21085439    -0.81400
C134        C  0.06969599  0.60243342  0.19733817     0.99400
C135        C  0.07605054  0.60811288  0.31229214     1.06800
O136        O  0.11283687  0.56263277  0.25502888    -1.10400
O137        O  0.18343070  0.56701053  0.29833591    -0.72800
O138        O  0.18753483  0.62748747  0.29480035    -0.76300
O139        O  0.04696093  0.56663005  0.21023596    -0.77000
C140        C  0.19901610  0.60381489  0.30884648     0.98300
O141        O  0.18076934  0.62482459  0.20745385    -0.74900
O142        O  0.10629748  0.49168265  0.29836231    -0.80100
C143        C  0.06715304  0.47775741  0.20024942     1.00900
C144        C  0.07267736  0.48218903  0.31485245     1.06800
O145        O  0.04439008  0.48943179  0.21585871    -0.75800
C146        C  0.19403921  0.60190511  0.19618331     1.05100
C147        C  0.00157994  0.34436714  0.05849335     0.88700
C148        C  0.02980314  0.65811646  0.07725978    -0.51600
C149        C  0.02692620  0.65475666  0.11782970     0.11600
C150        C  0.99932823  0.33906004  0.13596340     0.22500
C151        C  0.28616460  0.64757773  0.07837507    -0.52300
C152        C  0.28914382  0.64716475  0.11882021     0.11700
C153        C  0.02005444  0.38568119  0.08020611    -0.51800
C154        C  0.01884322  0.38277021  0.12071496     0.12300
H155        H  0.04468211  0.64549050  0.05974900     0.16800
H156        H  0.99850285  0.33676453  0.16895751     0.02500
H157        H  0.25696848  0.63497018  0.06246046     0.17100
H158        H  0.03320707  0.41459817  0.06492790     0.16900
C159        C  0.01363630  0.33688335  0.44383920     0.88700
C160        C  0.03172610  0.38135103  0.42992779    -0.51600
C161        C  0.03116583  0.38509492  0.38935703     0.11600
C162        C  0.01281477  0.34457919  0.36680383     0.22500
C163        C  0.30209917  0.65279712  0.42075901    -0.52300
C164        C  0.30102635  0.65294084  0.38027568     0.11700
C165        C  0.02957886  0.65965490  0.42795291    -0.51800
C166        C  0.03002239  0.65907296  0.38729519     0.12300
H167        H  0.04381009  0.40712508  0.45013262     0.16800
H168        H  0.01226707  0.34753022  0.33390666     0.02500
H169        H  0.27406020  0.63874994  0.43746078     0.17100
H170        H  0.04374853  0.64653404  0.44650830     0.16900
Fe171      Fe  0.18624669  0.38058285  0.74815901     1.65800
Fe172      Fe  0.18458069  0.46996031  0.74967640     1.73200
Fe173      Fe  0.27643328  0.47188391  0.74376845     1.54400
O174        O  0.28439906  0.43805256  0.78754235    -0.79500
O175        O  0.21721131  0.50942306  0.70394235    -0.77800
O176        O  0.22607435  0.37848173  0.78964500    -0.82000
O177        O  0.21935475  0.37604884  0.70186923    -0.76900
O178        O  0.28339558  0.51351345  0.78736722    -0.78600
O179        O  0.14161792  0.43275246  0.70763085    -0.81400
C180        C  0.25439625  0.39888163  0.68732681     0.99400
C181        C  0.26262896  0.40251557  0.80112235     1.06800
O182        O  0.21577059  0.44082787  0.74723780    -1.10400
O183        O  0.14773103  0.43441791  0.79581324    -0.72800
O184        O  0.14882341  0.37645686  0.79467293    -0.76300
O185        O  0.27824794  0.43487445  0.69953423    -0.77000
C186        C  0.13650656  0.39913614  0.80903536     0.98300
O187        O  0.14272387  0.37477136  0.70662590    -0.74900
O188        O  0.22343600  0.51138385  0.79185952    -0.80100
C189        C  0.25197476  0.52177551  0.68849666     1.00900
C190        C  0.26067751  0.52568251  0.80210115     1.06800
O191        O  0.27629049  0.50965450  0.69957614    -0.75800
C192        C  0.12875706  0.39710634  0.69471663     1.05100
C193        C  0.99575053  0.32074188  0.94349342     0.88700
C194        C  0.31212792  0.62050319  0.91913027    -0.51600
C195        C  0.31160900  0.62283916  0.87868518     0.11600
C196        C  0.99934270  0.32628205  0.86606525     0.22500
C197        C  0.03996781  0.34497056  0.92759662    -0.52300
C198        C  0.04157452  0.34768287  0.88688177     0.11700
C199        C  0.31488385  0.35955460  0.91843866    -0.51800
C200        C  0.31380898  0.35679979  0.87800581     0.12300
H201        H  0.29813401  0.59178460  0.93484473     0.16800
H202        H  0.00064132  0.32857098  0.83307691     0.02500
H203        H  0.06716566  0.35835149  0.94668062     0.17100
H204        H  0.30226918  0.37540492  0.93440645     0.16900
C205        C  0.98967477  0.33205402  0.55726747     0.88700
C206        C  0.29685373  0.34328115  0.57123581    -0.51600
C207        C  0.29841506  0.34635082  0.61188652     0.11600
C208        C  0.99212274  0.65418659  0.63567453     0.22500
C209        C  0.03222400  0.35349656  0.57773277    -0.52300
C210        C  0.03088318  0.34832585  0.61788902     0.11700
C211        C  0.29986792  0.61952665  0.57246244    -0.51800
C212        C  0.30035994  0.61827592  0.61303706     0.12300
H213        H  0.28214346  0.35561437  0.55235733     0.16800
H214        H  0.99240235  0.65510292  0.66874124     0.02500
H215        H  0.06068241  0.37131772  0.56196624     0.17100
H216        H  0.28407504  0.59239205  0.55406770     0.16900
C217        C  0.29315584  0.58730667  0.85313482    -0.11100
C218        C  0.27829059  0.55835127  0.83084043    -0.12700
C219        C  0.10697757  0.38329995  0.84076022    -0.11100
C220        C  0.07911168  0.36813162  0.86419819    -0.12700
C221        C  0.29574789  0.37447189  0.85271949    -0.11100
C222        C  0.28062594  0.38815028  0.83014899    -0.12700
C223        C  0.28021462  0.58111023  0.63575136    -0.11100
C224        C  0.26559383  0.55249418  0.65814219    -0.12700
C225        C  0.06691972  0.36624721  0.64317634    -0.11100
C226        C  0.09592315  0.38076657  0.66583764    -0.12700
C227        C  0.28127015  0.36662941  0.63433496    -0.11100
C228        C  0.26844886  0.38235539  0.65677234    -0.12700
C229        C  0.99104199  0.33920029  0.51280117    -0.14300
C230        C  0.01348795  0.33062030  0.48839974    -0.29400
H231        H  0.30232758  0.28663331  0.49689228     0.14800
H232        H  0.02108893  0.71216898  0.50419661     0.15300
C233        C  0.00436049  0.34847179  0.01333786    -0.14300
C234        C  0.99233537  0.31650865  0.98861340    -0.29400
H235        H  0.33076828  0.34847643  0.01121451     0.14800
H236        H  0.98053467  0.62363953  0.00182812     0.15300
C237        C  0.04863348  0.64047209  0.36453814    -0.11100
C238        C  0.06218145  0.62536108  0.34223968    -0.11900
C239        C  0.26326137  0.63487088  0.35745407    -0.11100
C240        C  0.23274771  0.62011959  0.33674499    -0.12700
C241        C  0.05865572  0.45189441  0.34587824    -0.11100
C242        C  0.04662418  0.42329044  0.36832229    -0.12700
C243        C  0.04234898  0.63349356  0.14208623    -0.11100
C244        C  0.05431476  0.61763563  0.16597579    -0.12700
C245        C  0.22528928  0.61676022  0.16653473    -0.11100
C246        C  0.25375598  0.63021352  0.14406447    -0.12700
C247        C  0.03535717  0.41772170  0.14715044    -0.11100
C248        C  0.04955342  0.44578100  0.17062017    -0.12700
Fe249      Fe  0.15036621  0.96030628  0.25288157     1.65800
Fe250      Fe  0.14780008  0.86885969  0.25319004     1.73200
Fe251      Fe  0.05784586  0.87118005  0.25278575     1.54400
O252        O  0.05554227  0.90803368  0.29690380    -0.79500
O253        O  0.10928873  0.82744379  0.21103597    -0.77800
O254        O  0.11547817  0.96593216  0.29679440    -0.82000
O255        O  0.11427280  0.96476404  0.20784411    -0.76900
O256        O  0.05376117  0.83134124  0.29693383    -0.78600
O257        O  0.18603252  0.90245452  0.20773299    -0.81400
C258        C  0.07814370  0.94205783  0.19420833     0.99400
C259        C  0.07973486  0.94354470  0.31011721     1.06800
O260        O  0.11865347  0.90008770  0.25298327    -1.10400
O261        O  0.19071482  0.90536170  0.29565600    -0.72800
O262        O  0.19093490  0.96393122  0.29752546    -0.76300
O263        O  0.05415547  0.90700051  0.20794526    -0.77000
C264        C  0.20397815  0.94074468  0.30946427     0.98300
O265        O  0.18955523  0.96269452  0.20917239    -0.74900
O266        O  0.11292131  0.83118186  0.29834521    -0.80100
C267        C  0.07338221  0.81540298  0.19775022     1.00900
C268        C  0.07698872  0.81882569  0.31057941     1.06800
O269        O  0.05148960  0.82989791  0.20924611    -0.75800
C270        C  0.19987051  0.93831855  0.19515450     1.05100
C271        C  0.00917223  0.68091277  0.05898566     0.88700
C272        C  0.03040356  0.98980986  0.07252063    -0.51600
C273        C  0.03005576  0.98840129  0.11333251     0.11600
C274        C  0.00438717  0.67467691  0.13624614     0.22500
C275        C  0.29542170  0.98843343  0.07816494    -0.52300
C276        C  0.29499590  0.98444332  0.11857536     0.11700
C277        C  0.02934532  0.72193644  0.08095338    -0.51800
C278        C  0.02670660  0.71861174  0.12124476     0.12300
H279        H  0.04552100  0.97771146  0.05463019     0.16800
H280        H  0.00225284  0.67210644  0.16918442     0.02500
H281        H  0.26768282  0.97685597  0.05998382     0.17100
H282        H  0.04403194  0.75106207  0.06596828     0.16900
C283        C  0.00684354  0.68044941  0.44470067     0.88700
C284        C  0.02797646  0.72285431  0.42581445    -0.51600
C285        C  0.02857611  0.72215267  0.38538784     0.11600
C286        C  0.00815058  0.67940482  0.36716010     0.22500
C287        C  0.30134023  0.97687020  0.42681449    -0.52300
C288        C  0.30207935  0.98163653  0.38650621     0.11700
C289        C  0.03387024  0.99548729  0.42702686    -0.51800
C290        C  0.03351916  0.99346558  0.38632457     0.12300
H291        H  0.04122132  0.75093408  0.44284820     0.16800
H292        H  0.00879838  0.67911563  0.33411288     0.02500
H293        H  0.27305716  0.96158689  0.44330518     0.17100
H294        H  0.04886264  0.98349819  0.44596903     0.16900
Fe295      Fe  0.18935286  0.71372172  0.75347669     1.65800
Fe296      Fe  0.18586058  0.80207549  0.74947125     1.73200
Fe297      Fe  0.27884383  0.80579955  0.75022677     1.54400
O298        O  0.28599956  0.77298078  0.79597760    -0.79500
O299        O  0.22051428  0.84172349  0.70472852    -0.77800
O300        O  0.22825211  0.71299599  0.79718092    -0.82000
O301        O  0.22444972  0.70935349  0.70914417    -0.76900
O302        O  0.28262936  0.84702784  0.79244831    -0.78600
O303        O  0.14562999  0.76401558  0.70590743    -0.81400
C304        C  0.25984744  0.73263795  0.69547964     0.99400
C305        C  0.26427299  0.73749263  0.80974735     1.06800
O306        O  0.21803872  0.77387946  0.75105945    -1.10400
O307        O  0.14678838  0.76665702  0.79416381    -0.72800
O308        O  0.15056152  0.71018590  0.79819179    -0.76300
O309        O  0.28297094  0.76874903  0.70774306    -0.77000
C310        C  0.13644276  0.73241304  0.80948468     0.98300
O311        O  0.14636286  0.70593822  0.70995405    -0.74900
O312        O  0.22188737  0.84378732  0.79275921    -0.80100
C313        C  0.25620422  0.85483766  0.69128128     1.00900
C314        C  0.25856311  0.85843847  0.80518134     1.06800
O315        O  0.28036774  0.84325749  0.70444652    -0.75800
C316        C  0.13298337  0.72775935  0.69499080     1.05100
C317        C  0.99700830  0.65805209  0.94412559     0.88700
C318        C  0.30377648  0.94986204  0.92402421    -0.51600
C319        C  0.30538953  0.95346830  0.88370163     0.11600
C320        C  0.99801713  0.66163108  0.86661970     0.22500
C321        C  0.04053795  0.68174794  0.92695865    -0.52300
C322        C  0.04080987  0.68355784  0.88630422     0.11700
C323        C  0.31439369  0.68564827  0.92412083    -0.51800
C324        C  0.31397449  0.68777992  0.88353102     0.12300
H325        H  0.28873169  0.92063528  0.93881613     0.16800
H326        H  0.99838477  0.66292873  0.83357099     0.02500
H327        H  0.06834678  0.69534607  0.94519407     0.17100
H328        H  0.30141156  0.69966315  0.94224177     0.16900
C329        C  0.99141030  0.65180837  0.55810795     0.88700
C330        C  0.30416681  0.68554172  0.57552815    -0.51600
C331        C  0.30463556  0.68395736  0.61614903     0.11600
C332        C  0.99237986  0.98953603  0.63500517     0.22500
C333        C  0.03484894  0.67446760  0.57701364    -0.52300
C334        C  0.03498160  0.67562696  0.61764037     0.11700
C335        C  0.30317825  0.95553683  0.57639135    -0.51800
C336        C  0.30312686  0.95284793  0.61704664     0.12300
H337        H  0.29113007  0.70111864  0.55912143     0.16800
H338        H  0.99180294  0.98974164  0.66805814     0.02500
H339        H  0.06274255  0.68809478  0.55987607     0.17100
H340        H  0.28900210  0.92910038  0.55697835     0.16900
C341        C  0.28787186  0.91879804  0.85726211    -0.11100
C342        C  0.27403057  0.89048528  0.83434252    -0.12700
C343        C  0.10596794  0.71732465  0.84011791    -0.11100
C344        C  0.07776573  0.70297040  0.86304010    -0.12700
C345        C  0.29643746  0.70830747  0.86148235    -0.11100
C346        C  0.28187643  0.72330844  0.83968876    -0.12700
C347        C  0.28462924  0.91487092  0.63886107    -0.11100
C348        C  0.27077151  0.88587934  0.66095679    -0.12700
C349        C  0.07195980  0.69483250  0.64206101    -0.11100
C350        C  0.10089845  0.71012960  0.66502464    -0.12700
C351        C  0.28803520  0.70263431  0.64154422    -0.11100
C352        C  0.27487056  0.71693715  0.66518440    -0.12700
C353        C  0.99057431  0.64934240  0.51293371    -0.14300
C354        C  0.00693840  0.68254505  0.48987018    -0.29400
H355        H  0.28847974  0.65077334  0.49906020     0.14800
H356        H  0.02450514  0.04918744  0.50208560     0.15300
C357        C  0.01202324  0.68585942  0.01406332    -0.14300
C358        C  0.99558375  0.65390618  0.98912980    -0.29400
H359        H  0.30703027  0.68702462  0.00409563     0.14800
H360        H  0.97388919  0.95135135  0.99792629     0.15300
C361        C  0.05205193  0.97461413  0.36369377    -0.11100
C362        C  0.06542947  0.95979670  0.34076213    -0.11900
C363        C  0.26547429  0.96724603  0.36184933    -0.11100
C364        C  0.23641673  0.95549360  0.33916387    -0.12700
C365        C  0.06104809  0.78746975  0.34000539    -0.11100
C366        C  0.04663271  0.75850168  0.36174790    -0.12700
C367        C  0.04923057  0.97068661  0.13775541    -0.11100
C368        C  0.06321919  0.95718341  0.16224397    -0.12700
C369        C  0.23000023  0.95256512  0.16448729    -0.11100
C370        C  0.25807865  0.96595620  0.14160469    -0.12700
C371        C  0.04271271  0.75361258  0.14721917    -0.11100
C372        C  0.05636006  0.78261135  0.16930403    -0.12700
Fe373      Fe  0.48090598  0.28426858  0.25915257     1.65800
Fe374      Fe  0.48191181  0.19467523  0.26050304     1.73200
Fe375      Fe  0.39034808  0.19367265  0.26376659     1.54400
O376        O  0.38856605  0.22987786  0.30860324    -0.79500
O377        O  0.44258243  0.15222452  0.21925940    -0.77800
O378        O  0.44534655  0.29004448  0.30226635    -0.82000
O379        O  0.44370829  0.28559733  0.21428866    -0.76900
O380        O  0.38905711  0.15430543  0.30733784    -0.78600
O381        O  0.51854242  0.22804301  0.21368695    -0.81400
C382        C  0.40648245  0.26274652  0.20418356     0.99400
C383        C  0.41119318  0.26686535  0.31834338     1.06800
O384        O  0.45105251  0.22418053  0.26118284    -1.10400
O385        O  0.52549041  0.23342678  0.30143807    -0.72800
O386        O  0.52176131  0.29006498  0.30357846    -0.76300
O387        O  0.38329668  0.22875360  0.22035977    -0.77000
C388        C  0.53697862  0.26863450  0.31494116     0.98300
O389        O  0.52103269  0.28768247  0.21579987    -0.74900
O390        O  0.44959838  0.15720512  0.30722308    -0.80100
C391        C  0.40649105  0.14016577  0.20634171     1.00900
C392        C  0.41382182  0.14351289  0.32057922     1.06800
O393        O  0.38414699  0.15360056  0.21917534    -0.75800
C394        C  0.53207688  0.26400800  0.20145625     1.05100
C395        C  0.33902036  0.01183183  0.06127428     0.88700
C396        C  0.36341158  0.30899415  0.08223556    -0.51600
C397        C  0.36117556  0.31041904  0.12259789     0.11600
C398        C  0.33763688  0.00387335  0.13839467     0.22500
C399        C  0.62513659  0.30900617  0.08245220    -0.52300
C400        C  0.62670160  0.31193441  0.12303644     0.11700
C401        C  0.36000972  0.05244864  0.08418751    -0.51800
C402        C  0.35912382  0.04807885  0.12448332     0.12300
H403        H  0.37702240  0.29341094  0.06748884     0.16800
H404        H  0.33703804  0.00057813  0.17129724     0.02500
H405        H  0.59657817  0.29318219  0.06547357     0.17100
H406        H  0.37396237  0.08191716  0.06989197     0.16900
C407        C  0.34428361  0.99550062  0.44649112     0.88700
C408        C  0.36708065  0.04016747  0.43278353    -0.51600
C409        C  0.36744969  0.04440209  0.39234642     0.11600
C410        C  0.34535744  0.00405292  0.36935442     0.22500
C411        C  0.63903592  0.32554716  0.42759796    -0.52300
C412        C  0.63802926  0.32272773  0.38722622     0.11700
C413        C  0.36131438  0.32229684  0.42849849    -0.51800
C414        C  0.36344398  0.31979098  0.38809246     0.12300
H415        H  0.38131303  0.06585705  0.45313408     0.16800
H416        H  0.34574357  0.00767559  0.33650065     0.02500
H417        H  0.61148608  0.31302239  0.44521596     0.17100
H418        H  0.37385162  0.30928993  0.44929147     0.16900
Fe419      Fe  0.51896138  0.04521398  0.75679452     1.65800
Fe420      Fe  0.51858287  0.13520923  0.75581191     1.73200
Fe421      Fe  0.61002383  0.13579439  0.75518110     1.54400
O422        O  0.61578992  0.10105907  0.79963001    -0.79500
O423        O  0.55386123  0.17521042  0.71177068    -0.77800
O424        O  0.55683052  0.04207113  0.80004964    -0.82000
O425        O  0.55360825  0.04040371  0.71234752    -0.76900
O426        O  0.61518763  0.17666970  0.79859745    -0.78600
O427        O  0.47786296  0.09902948  0.71173893    -0.81400
C428        C  0.58935286  0.06304585  0.69919115     0.99400
C429        C  0.59315572  0.06539050  0.81259504     1.06800
O430        O  0.54922133  0.10541871  0.75592470    -1.10400
O431        O  0.47903598  0.09961186  0.80001618    -0.72800
O432        O  0.48034277  0.04177718  0.80163432    -0.76300
O433        O  0.61304232  0.09893007  0.71174027    -0.77000
C434        C  0.46742838  0.06462906  0.81409468     0.98300
O435        O  0.47711532  0.04012584  0.71329546    -0.74900
O436        O  0.55537542  0.17530819  0.79970290    -0.80100
C437        C  0.58927159  0.18742865  0.69809541     1.00900
C438        C  0.59187658  0.18871456  0.81203274     1.06800
O439        O  0.61264753  0.17463329  0.71053445    -0.75800
C440        C  0.46469340  0.06312270  0.69941914     1.05100
C441        C  0.32551987  0.99080217  0.94625669     0.88700
C442        C  0.63685802  0.28913986  0.92576335    -0.51600
C443        C  0.63915226  0.28727269  0.88544065     0.11600
C444        C  0.32835227  0.99745526  0.86898880     0.22500
C445        C  0.36945914  0.01284655  0.92996243    -0.52300
C446        C  0.37070819  0.01628622  0.88944843     0.11700
C447        C  0.64276781  0.01123772  0.92464502    -0.51800
C448        C  0.64319139  0.01447798  0.88419773     0.12300
H449        H  0.62178458  0.26233715  0.94432129     0.16800
H450        H  0.32950743  0.00016954  0.83603252     0.02500
H451        H  0.39682654  0.02434303  0.94868510     0.17100
H452        H  0.62798720  0.02292921  0.94358074     0.16900
C453        C  0.32540038  0.99968064  0.56101132     0.88700
C454        C  0.63348330  0.01799583  0.57941478    -0.51600
C455        C  0.63458687  0.01477961  0.61976954     0.11600
C456        C  0.32088732  0.32680919  0.63245561     0.22500
C457        C  0.36850576  0.01954939  0.58042823    -0.52300
C458        C  0.36804347  0.01642630  0.62090175     0.11700
C459        C  0.63893252  0.27959566  0.57922667    -0.51800
C460        C  0.63758702  0.28188686  0.61960522     0.12300
H461        H  0.61897907  0.03304476  0.56459954     0.16800
H462        H  0.32217364  0.32931798  0.66545282     0.02500
H463        H  0.39665827  0.03491993  0.56374270     0.17100
H464        H  0.62538088  0.25089192  0.56325577     0.16900
C465        C  0.62187583  0.24970168  0.86326809    -0.11100
C466        C  0.60806371  0.22045992  0.84153289    -0.12700
C467        C  0.43677359  0.04941636  0.84452653    -0.11100
C468        C  0.40820055  0.03512474  0.86699777    -0.12700
C469        C  0.62469908  0.03423012  0.86255828    -0.11100
C470        C  0.61007527  0.04966322  0.84152619    -0.12700
C471        C  0.61871657  0.24654770  0.64497410    -0.11100
C472        C  0.60435762  0.21848008  0.66801990    -0.12700
C473        C  0.40463059  0.03354324  0.64565630    -0.11100
C474        C  0.43316417  0.04730941  0.66900548    -0.12700
C475        C  0.61756032  0.03208561  0.64635615    -0.11100
C476        C  0.60425154  0.04665337  0.66950896    -0.12700
C477        C  0.32561166  0.00408916  0.51592486    -0.14300
C478        C  0.34364040  0.98998522  0.49147242    -0.29400
H479        H  0.63885741  0.01892534  0.49979331     0.14800
H480        H  0.35224631  0.37935168  0.49940005     0.15300
C481        C  0.34036369  0.01733292  0.01647553    -0.14300
C482        C  0.32336159  0.98566683  0.99110444    -0.29400
H483        H  0.69380082  0.04761575  0.99825539     0.14800
H484        H  0.35292148  0.32287824  0.98716883     0.15300
C485        C  0.38227414  0.29960115  0.36839353    -0.11100
C486        C  0.39644941  0.28395280  0.34758997    -0.11900
C487        C  0.60039722  0.30233925  0.36437499    -0.11100
C488        C  0.57022992  0.28597588  0.34329428    -0.12700
C489        C  0.39981175  0.11251499  0.35071296    -0.11100
C490        C  0.38615057  0.08310497  0.37210376    -0.12700
C491        C  0.37652137  0.29129851  0.14952040    -0.11100
C492        C  0.38964716  0.27687659  0.17358813    -0.12700
C493        C  0.56268003  0.27934294  0.17090202    -0.11100
C494        C  0.59069944  0.29367296  0.14773909    -0.12700
C495        C  0.37609886  0.08198826  0.15185217    -0.11100
C496        C  0.38992597  0.10917086  0.17607156    -0.12700
Fe497      Fe  0.47990353  0.62067810  0.24360516     1.65800
Fe498      Fe  0.48389183  0.53248206  0.24550834     1.73200
Fe499      Fe  0.39070761  0.52833437  0.24442000     1.54400
O500        O  0.38573762  0.56403051  0.28808116    -0.79500
O501        O  0.44767575  0.49026599  0.20271109    -0.77800
O502        O  0.44362814  0.62395463  0.28716087    -0.82000
O503        O  0.44198562  0.62225318  0.19918369    -0.76900
O504        O  0.38897200  0.48971345  0.28879221    -0.78600
O505        O  0.52226032  0.56810149  0.20065347    -0.81400
C506        C  0.40588509  0.59805127  0.18651321     0.99400
C507        C  0.40828111  0.60018543  0.30056040     1.06800
O508        O  0.45148251  0.56047313  0.24448455    -1.10400
O509        O  0.52456957  0.57051454  0.28869023    -0.72800
O510        O  0.52161438  0.62750486  0.28803948    -0.76300
O511        O  0.38399103  0.56242272  0.19986345    -0.77000
C512        C  0.53600439  0.60595357  0.30135785     0.98300
O513        O  0.52014520  0.62558818  0.19997136    -0.74900
O514        O  0.44974695  0.49303453  0.29032074    -0.80100
C515        C  0.41136121  0.47604354  0.18942907     1.00900
C516        C  0.41347358  0.47884127  0.30253628     1.06800
O517        O  0.38749804  0.48818625  0.20106849    -0.75800
C518        C  0.53360565  0.60329042  0.18723701     1.05100
C519        C  0.34463962  0.33123320  0.05986968     0.88700
C520        C  0.34952819  0.64527421  0.07345902    -0.51600
C521        C  0.35229104  0.64502005  0.11403494     0.11600
C522        C  0.34063046  0.33395865  0.13702719     0.22500
C523        C  0.63038074  0.65618346  0.07107281    -0.52300
C524        C  0.63007802  0.65347565  0.11164939     0.11700
C525        C  0.36726275  0.37466773  0.07727785    -0.51800
C526        C  0.36474625  0.37589050  0.11759844     0.12300
H527        H  0.36183506  0.63072401  0.05519502     0.16800
H528        H  0.33891292  0.33508748  0.16994144     0.02500
H529        H  0.60259921  0.64439238  0.05293096     0.17100
H530        H  0.38327949  0.40176952  0.05925480     0.16900
C531        C  0.33940031  0.34533239  0.44145154     0.88700
C532        C  0.36281224  0.38680276  0.42070475    -0.51600
C533        C  0.36499682  0.38409468  0.38050452     0.11600
C534        C  0.34375730  0.34040671  0.36450289     0.22500
C535        C  0.63498825  0.65461665  0.41836263    -0.52300
C536        C  0.63440094  0.65514913  0.37777395     0.11700
C537        C  0.36558388  0.65058125  0.41915429    -0.51800
C538        C  0.36397469  0.65054717  0.37849357     0.12300
H539        H  0.37601569  0.41568455  0.43631675     0.16800
H540        H  0.34546183  0.33833477  0.33167812     0.02500
H541        H  0.60681186  0.64100138  0.43485216     0.17100
H542        H  0.37940163  0.63595562  0.43592825     0.16900
Fe543      Fe  0.51907828  0.37862877  0.74197322     1.65800
Fe544      Fe  0.51934123  0.46889064  0.74224342     1.73200
Fe545      Fe  0.61034694  0.46867843  0.74184419     1.54400
O546        O  0.61518908  0.43454097  0.78716605    -0.79500
O547        O  0.55450706  0.50794643  0.69804798    -0.77800
O548        O  0.55729005  0.37465615  0.78422243    -0.82000
O549        O  0.55287525  0.37421022  0.69635896    -0.76900
O550        O  0.61596503  0.51035278  0.78440106    -0.78600
O551        O  0.47780875  0.43307476  0.69871816    -0.81400
C552        C  0.58943335  0.39630162  0.68490626     0.99400
C553        C  0.59273637  0.39829758  0.79859122     1.06800
O554        O  0.54959022  0.43874670  0.74198952    -1.10400
O555        O  0.48051833  0.43360336  0.78662385    -0.72800
O556        O  0.48178252  0.37564151  0.78774971    -0.76300
O557        O  0.61362260  0.43124542  0.69929027    -0.77000
C558        C  0.46936700  0.39873538  0.80068478     0.98300
O559        O  0.47634465  0.37388824  0.69978717    -0.74900
O560        O  0.55634523  0.50915073  0.78579142    -0.80100
C561        C  0.58956668  0.51923810  0.68405059     1.00900
C562        C  0.59288100  0.52259981  0.79784345     1.06800
O563        O  0.61293522  0.50649042  0.69654666    -0.75800
C564        C  0.46378875  0.39700457  0.68665675     1.05100
C565        C  0.33544233  0.33809971  0.93902790     0.88700
C566        C  0.63904353  0.61384139  0.91704017    -0.51600
C567        C  0.64046312  0.61704733  0.87669992     0.11600
C568        C  0.33324075  0.33300787  0.86167258     0.22500
C569        C  0.37819606  0.35716470  0.92031628    -0.52300
C570        C  0.37669528  0.35420149  0.87982588     0.11700
C571        C  0.63705129  0.35293864  0.91928184    -0.51800
C572        C  0.63903787  0.35076606  0.87903539     0.12300
H573        H  0.62444563  0.58476546  0.93211972     0.16800
H574        H  0.33228823  0.33089317  0.82865013     0.02500
H575        H  0.40672085  0.37189133  0.93746115     0.17100
H576        H  0.62239213  0.36772009  0.93361436     0.16900
C577        C  0.31829003  0.32091345  0.55505712     0.88700
C578        C  0.64008319  0.34407441  0.57306663    -0.51600
C579        C  0.63871269  0.34607418  0.61358389     0.11600
C580        C  0.32418310  0.66010800  0.63304938     0.22500
C581        C  0.36202707  0.34389907  0.57291115    -0.52300
C582        C  0.36317410  0.34697546  0.61330043     0.11700
C583        C  0.63592156  0.61675256  0.56911989    -0.51800
C584        C  0.63655097  0.61533516  0.60957052     0.12300
H585        H  0.62695900  0.35712521  0.55302984     0.16800
H586        H  0.32457093  0.65896169  0.66610222     0.02500
H587        H  0.38951846  0.35626038  0.55522643     0.17100
H588        H  0.62121091  0.58967367  0.55054678     0.16900
C589        C  0.62319540  0.58226323  0.85054262    -0.11100
C590        C  0.60923733  0.55418412  0.82740958    -0.12700
C591        C  0.43997149  0.38408357  0.83192041    -0.11100
C592        C  0.41257640  0.37087288  0.85549880    -0.12700
C593        C  0.62228619  0.36833189  0.85197829    -0.11100
C594        C  0.60864650  0.38267592  0.82847903    -0.12700
C595        C  0.61828727  0.57814203  0.63167342    -0.11100
C596        C  0.60436184  0.54953471  0.65374465    -0.12700
C597        C  0.40084854  0.36621998  0.63632488    -0.11100
C598        C  0.43080371  0.38097025  0.65784661    -0.12700
C599        C  0.61967019  0.36542205  0.63431363    -0.11100
C600        C  0.60497210  0.38020713  0.65552868    -0.12700
C601        C  0.31750537  0.31681737  0.51006601    -0.14300
C602        C  0.33701282  0.34920303  0.48613590    -0.29400
H603        H  0.64796836  0.28829394  0.50023255     0.14800
H604        H  0.38164772  0.68693206  0.49522548     0.15300
C605        C  0.34755133  0.32871986  0.01490704    -0.14300
C606        C  0.33542001  0.34204681  0.98410183    -0.29400
H607        H  0.64933906  0.34300883  0.01458447     0.14800
H608        H  0.35390982  0.64144738  0.99374834     0.15300
C609        C  0.37990543  0.63080702  0.35364865    -0.11100
C610        C  0.39271611  0.61567177  0.33055788    -0.11900
C611        C  0.59715870  0.63752054  0.35392643    -0.11100
C612        C  0.56800390  0.62300088  0.33129982    -0.12700
C613        C  0.39864921  0.44758074  0.33231285    -0.11100
C614        C  0.38417488  0.41928374  0.35504068    -0.12700
C615        C  0.37210812  0.62644286  0.13569205    -0.11100
C616        C  0.38811918  0.61252525  0.15702188    -0.12700
C617        C  0.56454632  0.61944339  0.15718994    -0.11100
C618        C  0.59308002  0.63443767  0.13474390    -0.12700
C619        C  0.38236594  0.41333468  0.14013687    -0.11100
C620        C  0.39597750  0.44317721  0.16109128    -0.12700
Fe621      Fe  0.48345607  0.95366782  0.24538998     1.65800
Fe622      Fe  0.48429260  0.86380449  0.24550064     1.73200
Fe623      Fe  0.39270502  0.86295689  0.24593691     1.54400
O624        O  0.38910444  0.89973239  0.28907566    -0.79500
O625        O  0.44758739  0.82329595  0.20157850    -0.77800
O626        O  0.44894841  0.95777720  0.29055462    -0.82000
O627        O  0.44529949  0.95715758  0.20249645    -0.76900
O628        O  0.39021569  0.82448191  0.29089257    -0.78600
O629        O  0.52378920  0.89988163  0.20144477    -0.81400
C630        C  0.40946659  0.93352852  0.18886054     0.99400
C631        C  0.41286325  0.93503426  0.30292660     1.06800
O632        O  0.45346757  0.89344226  0.24554590    -1.10400
O633        O  0.52485266  0.89980633  0.28991484    -0.72800
O634        O  0.52567195  0.95870572  0.28854549    -0.76300
O635        O  0.38717556  0.89740704  0.20090182    -0.77000
C636        C  0.53803133  0.93565909  0.30242616     0.98300
O637        O  0.52174873  0.95739886  0.20009935    -0.74900
O638        O  0.44890531  0.82364943  0.28929045    -0.80100
C639        C  0.41073235  0.80929870  0.19000901     1.00900
C640        C  0.41359115  0.81159343  0.30314117     1.06800
O641        O  0.38769636  0.82170480  0.20326977    -0.75800
C642        C  0.53489304  0.93480103  0.18741340     1.05100
C643        C  0.32781459  0.66811304  0.05763910     0.88700
C644        C  0.36059261  0.98902904  0.07674439    -0.51600
C645        C  0.35965598  0.98485191  0.11714659     0.11600
C646        C  0.33337080  0.66717359  0.13515700     0.22500
C647        C  0.63273816  0.98878316  0.07130824    -0.52300
C648        C  0.63113053  0.98517649  0.11181393     0.11700
C649        C  0.35192913  0.71047611  0.07684811    -0.51800
C650        C  0.35492412  0.70991045  0.11722382     0.12300
H651        H  0.37525024  0.97742349  0.05753663     0.16800
H652        H  0.33570501  0.66690833  0.16816030     0.02500
H653        H  0.60552050  0.97646360  0.05227829     0.17100
H654        H  0.36538581  0.73847197  0.05992910     0.16900
C655        C  0.34600677  0.67321344  0.43879393     0.88700
C656        C  0.36820853  0.71589264  0.42020238    -0.51600
C657        C  0.36657273  0.71565014  0.37958863     0.11600
C658        C  0.34319558  0.67306167  0.36101770     0.22500
C659        C  0.63278133  0.97802317  0.42268805    -0.52300
C660        C  0.63386286  0.98239608  0.38232799     0.11700
C661        C  0.36535725  0.97566622  0.42443143    -0.51800
C662        C  0.36583181  0.98018210  0.38408425     0.12300
H663        H  0.38372369  0.74371172  0.43763916     0.16800
H664        H  0.34188129  0.67297465  0.32794392     0.02500
H665        H  0.60438757  0.96142503  0.43882941     0.17100
H666        H  0.37855182  0.95944118  0.43934639     0.16900
Fe667      Fe  0.52162952  0.71153607  0.74689259     1.65800
Fe668      Fe  0.52197778  0.80195666  0.74464429     1.73200
Fe669      Fe  0.61299386  0.80198744  0.74478002     1.54400
O670        O  0.61818087  0.76726555  0.79007785    -0.79500
O671        O  0.55629127  0.84014983  0.69903183    -0.77800
O672        O  0.55899822  0.70857075  0.79082795    -0.82000
O673        O  0.55613826  0.70608908  0.70297166    -0.76900
O674        O  0.61874679  0.84323934  0.78776425    -0.78600
O675        O  0.47953867  0.76426517  0.70230374    -0.81400
C676        C  0.59180860  0.72868392  0.68972394     0.99400
C677        C  0.59513147  0.73193716  0.80379113     1.06800
O678        O  0.55221104  0.77182728  0.74534925    -1.10400
O679        O  0.48396191  0.76793197  0.79026563    -0.72800
O680        O  0.48324325  0.70900792  0.79115888    -0.76300
O681        O  0.61555559  0.76465807  0.70188151    -0.77000
C682        C  0.47164435  0.73272198  0.80407664     0.98300
O683        O  0.47969742  0.70582655  0.70329472    -0.74900
O684        O  0.55997833  0.84386174  0.78698132    -0.80100
C685        C  0.59210512  0.85305807  0.68601817     1.00900
C686        C  0.59616838  0.85661751  0.79996617     1.06800
O687        O  0.61592000  0.84107596  0.69955002    -0.75800
C688        C  0.46631924  0.72828138  0.69016793     1.05100
C689        C  0.33514745  0.66203242  0.94023143     0.88700
C690        C  0.64517442  0.94870005  0.91870513    -0.51600
C691        C  0.64532068  0.95194911  0.87833385     0.11600
C692        C  0.33389525  0.66640639  0.86273557     0.22500
C693        C  0.37794091  0.68349677  0.92167868    -0.52300
C694        C  0.37709729  0.68570905  0.88124902     0.11700
C695        C  0.63955944  0.67802602  0.92160923    -0.51800
C696        C  0.64114136  0.68108221  0.88103596     0.12300
H697        H  0.63173789  0.91962358  0.93373537     0.16800
H698        H  0.33347733  0.66822361  0.82972725     0.02500
H699        H  0.40629097  0.69554127  0.93898657     0.17100
H700        H  0.62511670  0.69065189  0.93977116     0.16900
C701        C  0.32340525  0.66283958  0.55537494     0.88700
C702        C  0.63719581  0.68125082  0.57273906    -0.51600
C703        C  0.63776199  0.67950306  0.61318365     0.11600
C704        C  0.32500271  0.99414964  0.63844979     0.22500
C705        C  0.36686284  0.68174069  0.57429990    -0.52300
C706        C  0.36689046  0.68015187  0.61483521     0.11700
C707        C  0.63517183  0.95502496  0.57207665    -0.51800
C708        C  0.63627301  0.95189494  0.61267615     0.12300
H709        H  0.62328518  0.69609600  0.55647134     0.16800
H710        H  0.32497585  0.99196718  0.67144673     0.02500
H711        H  0.39522010  0.69584150  0.55807016     0.17100
H712        H  0.62146230  0.92881553  0.55236386     0.16900
C713        C  0.62751436  0.91707529  0.85207456    -0.11100
C714        C  0.61286512  0.88871081  0.82915867    -0.12700
C715        C  0.44159732  0.71816697  0.83474623    -0.11100
C716        C  0.41348350  0.70409988  0.85754452    -0.12700
C717        C  0.62418203  0.70143923  0.85771240    -0.11100
C718        C  0.61099206  0.71675590  0.83459742    -0.12700
C719        C  0.61977023  0.91367398  0.63408847    -0.11100
C720        C  0.60699444  0.88442792  0.65587878    -0.12700
C721        C  0.40396827  0.69729559  0.63889425    -0.11100
C722        C  0.43348581  0.71165446  0.66106429    -0.12700
C723        C  0.62035000  0.69746598  0.63807308    -0.11100
C724        C  0.60668181  0.71214308  0.66047910    -0.12700
C725        C  0.31948985  0.66258001  0.51008173    -0.14300
C726        C  0.35058066  0.67477587  0.48413822    -0.29400
H727        H  0.62165968  0.64514178  0.49684142     0.14800
H728        H  0.35818809  0.97405387  0.50430244     0.15300
C729        C  0.32304757  0.67128497  0.01292345    -0.14300
C730        C  0.33800227  0.65727544  0.98493079    -0.29400
H731        H  0.69100753  0.71241943  0.99636866     0.14800
H732        H  0.30775796  0.95515268  0.00321530     0.15300
C733        C  0.38367881  0.96371680  0.35733684    -0.11100
C734        C  0.39763720  0.95040066  0.33342565    -0.11900
C735        C  0.59763079  0.96510109  0.35691633    -0.11100
C736        C  0.56938502  0.95132809  0.33315111    -0.12700
C737        C  0.39865220  0.78053378  0.33315565    -0.11100
C738        C  0.38477124  0.75209216  0.35573935    -0.12700
C739        C  0.37801783  0.96475117  0.13859718    -0.11100
C740        C  0.39266180  0.94933635  0.15973449    -0.12700
C741        C  0.56518006  0.95027948  0.15667800    -0.11100
C742        C  0.59353371  0.96516831  0.13399214    -0.12700
C743        C  0.37644259  0.74648514  0.14089026    -0.11100
C744        C  0.39333553  0.77628952  0.16187106    -0.12700
Fe745      Fe  0.81514936  0.28576290  0.25532607     1.65800
Fe746      Fe  0.81525383  0.19563101  0.25481780     1.73200
Fe747      Fe  0.72408496  0.19531035  0.25749132     1.54400
O748        O  0.72156703  0.23269318  0.30093820    -0.79500
O749        O  0.77734340  0.15485022  0.21196785    -0.77800
O750        O  0.78156884  0.29061528  0.30092164    -0.82000
O751        O  0.77675623  0.28904321  0.21325708    -0.76900
O752        O  0.72226270  0.15707340  0.30230222    -0.78600
O753        O  0.85292804  0.23062487  0.20904261    -0.81400
C754        C  0.74076590  0.26535424  0.20031843     0.99400
C755        C  0.74570009  0.26831997  0.31397798     1.06800
O756        O  0.78481549  0.22556005  0.25596887    -1.10400
O757        O  0.85767001  0.23229506  0.29738059    -0.72800
O758        O  0.85782239  0.29088216  0.29740971    -0.76300
O759        O  0.71828611  0.22958023  0.21293518    -0.77000
C760        C  0.87102370  0.26812563  0.30990841     0.98300
O761        O  0.85240058  0.28890305  0.20926331    -0.74900
O762        O  0.78116708  0.15664303  0.30023617    -0.80100
C763        C  0.74083472  0.14174227  0.19997115     1.00900
C764        C  0.74604034  0.14471924  0.31465957     1.06800
O765        O  0.71792831  0.15400725  0.21395838    -0.75800
C766        C  0.86415752  0.26567219  0.19522289     1.05100
C767        C  0.67687872  0.01231530  0.05553411     0.88700
C768        C  0.69008594  0.30982171  0.08365553    -0.51600
C769        C  0.69127375  0.31252639  0.12398568     0.11600
C770        C  0.67324892  0.00523983  0.13275713     0.22500
C771        C  0.95773362  0.31924836  0.07494012    -0.52300
C772        C  0.95687981  0.31665623  0.11564525     0.11700
C773        C  0.69697619  0.05320507  0.07799696    -0.51800
C774        C  0.69493344  0.04930909  0.11835894     0.12300
H775        H  0.70341520  0.29470579  0.06755260     0.16800
H776        H  0.67174800  0.00228289  0.16569125     0.02500
H777        H  0.93024617  0.30518061  0.05625328     0.17100
H778        H  0.71133141  0.08250444  0.06334861     0.16900
C779        C  0.67558484  0.99848641  0.44283400     0.88700
C780        C  0.69689319  0.04310088  0.42884290    -0.51600
C781        C  0.69766826  0.04694963  0.38829307     0.11600
C782        C  0.67723580  0.00640895  0.36566445     0.22500
C783        C  0.97051779  0.31391021  0.42472589    -0.52300
C784        C  0.97031726  0.31826708  0.38456611     0.11700
C785        C  0.70340868  0.32470553  0.42914061    -0.51800
C786        C  0.70201702  0.32207083  0.38847477     0.12300
H787        H  0.71043708  0.06895583  0.44900838     0.16800
H788        H  0.67790287  0.00963732  0.33275201     0.02500
H789        H  0.94275347  0.29579608  0.44142383     0.17100
H790        H  0.71744913  0.31158558  0.44787206     0.16900
Fe791      Fe  0.85266929  0.04494551  0.74733165     1.65800
Fe792      Fe  0.85546459  0.13649099  0.74551339     1.73200
Fe793      Fe  0.94514987  0.13369713  0.74460537     1.54400
O794        O  0.94946921  0.09732523  0.78891857    -0.79500
O795        O  0.88916544  0.17289053  0.69865722    -0.77800
O796        O  0.88800098  0.04147421  0.79313957    -0.82000
O797        O  0.88800388  0.03771856  0.70488891    -0.76900
O798        O  0.95192548  0.17429542  0.78893075    -0.78600
O799        O  0.81170084  0.09874529  0.70428304    -0.81400
C800        C  0.92289661  0.06007396  0.68974309     0.99400
C801        C  0.92503032  0.06325772  0.80450150     1.06800
O802        O  0.88444331  0.10506782  0.74577123    -1.10400
O803        O  0.81789835  0.10411569  0.79233181    -0.72800
O804        O  0.81287961  0.04330993  0.79001826    -0.76300
O805        O  0.94644570  0.09670035  0.70024562    -0.77000
C806        C  0.80324848  0.06796923  0.80457323     0.98300
O807        O  0.81320273  0.04097493  0.70195684    -0.74900
O808        O  0.89510658  0.17856798  0.78684152    -0.80100
C809        C  0.92494252  0.18540100  0.68576053     1.00900
C810        C  0.93052783  0.18920022  0.80077443     1.06800
O811        O  0.94882932  0.17389898  0.70017707    -0.75800
C812        C  0.79936447  0.06354595  0.69035992     1.05100
C813        C  0.66552127  0.98983786  0.94063067     0.88700
C814        C  0.97662496  0.27945316  0.92177057    -0.51600
C815        C  0.97855612  0.28255539  0.88132957     0.11600
C816        C  0.66571775  0.99581758  0.86330143     0.22500
C817        C  0.70889837  0.01389158  0.92311475    -0.52300
C818        C  0.70873298  0.01701526  0.88253471     0.11700
C819        C  0.96805514  0.00801224  0.92293289    -0.51800
C820        C  0.96941118  0.01099822  0.88226673     0.12300
H821        H  0.96248460  0.25044058  0.93695025     0.16800
H822        H  0.66570129  0.99830501  0.83033443     0.02500
H823        H  0.73687816  0.02713532  0.94108395     0.17100
H824        H  0.95348676  0.02043664  0.94118414     0.16900
C825        C  0.65552673  0.99936200  0.55721622     0.88700
C826        C  0.97046024  0.00899306  0.57426854    -0.51600
C827        C  0.96991718  0.00938878  0.61501906     0.11600
C828        C  0.65900701  0.32540823  0.63600872     0.22500
C829        C  0.69906319  0.02039534  0.57555859    -0.52300
C830        C  0.69978278  0.01677550  0.61584405     0.11700
C831        C  0.96975027  0.28715566  0.57049618    -0.51800
C832        C  0.96885295  0.28260547  0.61106167     0.12300
H833        H  0.95606223  0.02191435  0.55576747     0.16800
H834        H  0.65796203  0.32716536  0.66894040     0.02500
H835        H  0.72671966  0.03664356  0.55825754     0.17100
H836        H  0.95766952  0.26172990  0.54986125     0.16900
C837        C  0.96161997  0.24784102  0.85487549    -0.11100
C838        C  0.94748351  0.22031365  0.83098580    -0.12700
C839        C  0.77317174  0.05342104  0.83559242    -0.11100
C840        C  0.74536537  0.03809469  0.85893160    -0.12700
C841        C  0.95272149  0.03168051  0.85887012    -0.11100
C842        C  0.94019432  0.04752267  0.83556114    -0.12700
C843        C  0.95217995  0.24404746  0.63177040    -0.11100
C844        C  0.93958370  0.21552726  0.65444731    -0.12700
C845        C  0.73719169  0.03406326  0.63921420    -0.11100
C846        C  0.76683541  0.04788899  0.66110073    -0.12700
C847        C  0.95100349  0.02766997  0.63801694    -0.11100
C848        C  0.93715992  0.04263383  0.66024468    -0.12700
C849        C  0.65496363  0.00439282  0.51232118    -0.14300
C850        C  0.67486421  0.99269362  0.48766080    -0.29400
H851        H  0.98028629  0.95670614  0.49814608     0.14800
H852        H  0.69879421  0.38098480  0.50426832     0.15300
C853        C  0.67945734  0.01722941  0.01061526    -0.14300
C854        C  0.66437031  0.98527554  0.98557993    -0.29400
H855        H  0.02237768  0.04396887  0.99659619     0.14800
H856        H  0.67303463  0.31841035  0.99164235     0.15300
C857        C  0.71845522  0.30119869  0.36591248    -0.11100
C858        C  0.73115833  0.28508635  0.34382380    -0.11900
C859        C  0.93338997  0.29930784  0.36063465    -0.11100
C860        C  0.90383595  0.28434449  0.33871735    -0.12700
C861        C  0.73148065  0.11417492  0.34527828    -0.11100
C862        C  0.71696094  0.08532266  0.36742218    -0.12700
C863        C  0.70961982  0.29495654  0.14872401    -0.11100
C864        C  0.72414814  0.28057603  0.17098208    -0.12700
C865        C  0.89280493  0.28055616  0.16292600    -0.11100
C866        C  0.91990867  0.29557919  0.13881110    -0.12700
C867        C  0.71125260  0.08353434  0.14540027    -0.11100
C868        C  0.72453152  0.11080862  0.16955374    -0.12700
Fe869      Fe  0.81335509  0.62150956  0.24450973     1.65800
Fe870      Fe  0.81615866  0.53282872  0.24739283     1.73200
Fe871      Fe  0.72347209  0.52973380  0.24604676     1.54400
O872        O  0.71937303  0.56571707  0.28944312    -0.79500
O873        O  0.77904488  0.49018229  0.20487020    -0.77800
O874        O  0.77726714  0.62562276  0.28739061    -0.82000
O875        O  0.77593693  0.62302320  0.19957187    -0.76900
O876        O  0.72141782  0.49089897  0.29074327    -0.78600
O877        O  0.85412209  0.56738200  0.20196096    -0.81400
C878        C  0.73964680  0.59933143  0.18710159     0.99400
C879        C  0.74209397  0.60204395  0.30113795     1.06800
O880        O  0.78429014  0.56132447  0.24598796    -1.10400
O881        O  0.85751811  0.57131111  0.29047855    -0.72800
O882        O  0.85479418  0.62839786  0.28951590    -0.76300
O883        O  0.71702370  0.56411027  0.20122122    -0.77000
C884        C  0.86897698  0.60678798  0.30327423     0.98300
O885        O  0.85315220  0.62543151  0.20117259    -0.74900
O886        O  0.78224888  0.49436803  0.29274266    -0.80100
C887        C  0.74287714  0.47671411  0.19128299     1.00900
C888        C  0.74601283  0.48028034  0.30494161     1.06800
O889        O  0.71956146  0.48951272  0.20278181    -0.75800
C890        C  0.86571688  0.60250091  0.18829364     1.05100
C891        C  0.66788674  0.32963754  0.06335733     0.88700
C892        C  0.69386987  0.65352747  0.07059140    -0.51600
C893        C  0.69303708  0.65077589  0.11120225     0.11600
C894        C  0.67041379  0.33481186  0.14073303     0.22500
C895        C  0.96485624  0.65793215  0.07414315    -0.52300
C896        C  0.96267369  0.65460912  0.11457716     0.11700
C897        C  0.69025461  0.37368205  0.07927090    -0.51800
C898        C  0.69132978  0.37615341  0.11982139     0.12300
H899        H  0.70722792  0.64003958  0.05209716     0.16800
H900        H  0.67164531  0.33690301  0.17375719     0.02500
H901        H  0.93789606  0.64533467  0.05473305     0.17100
H902        H  0.70412747  0.40019503  0.06023605     0.16900
C903        C  0.68267461  0.34764181  0.44559698     0.88700
C904        C  0.70409643  0.38911545  0.42462177    -0.51600
C905        C  0.70265785  0.38634059  0.38411052     0.11600
C906        C  0.68034768  0.34254638  0.36815692     0.22500
C907        C  0.96382603  0.65800887  0.42469408    -0.52300
C908        C  0.96473583  0.65752543  0.38400852     0.11700
C909        C  0.69854667  0.65237848  0.41736548    -0.51800
C910        C  0.69732535  0.65273010  0.37688715     0.12300
H911        H  0.71841119  0.41799361  0.44033982     0.16800
H912        H  0.67911844  0.34031295  0.33514138     0.02500
H913        H  0.93550276  0.64403520  0.44115790     0.17100
H914        H  0.71218347  0.63757854  0.43416912     0.16900
Fe915      Fe  0.85151672  0.37560607  0.75666049     1.65800
Fe916      Fe  0.85394968  0.46684788  0.75410301     1.73200
Fe917      Fe  0.94386936  0.46474194  0.75357963     1.54400
O918        O  0.94894922  0.42859628  0.79681759    -0.79500
O919        O  0.88802582  0.50378724  0.70806212    -0.77800
O920        O  0.88802029  0.37207223  0.80110770    -0.82000
O921        O  0.88591864  0.36907530  0.71354615    -0.76900
O922        O  0.95071588  0.50544805  0.79760482    -0.78600
O923        O  0.81101046  0.42950978  0.71211467    -0.81400
C924        C  0.92057916  0.39166088  0.69835261     0.99400
C925        C  0.92528089  0.39404736  0.81161714     1.06800
O926        O  0.88314223  0.43575436  0.75492460    -1.10400
O927        O  0.81576735  0.43391090  0.80009037    -0.72800
O928        O  0.81239714  0.37375735  0.79992905    -0.76300
O929        O  0.94458888  0.42801091  0.70917020    -0.77000
C930        C  0.80171125  0.39812116  0.81306352     0.98300
O931        O  0.81123811  0.37111384  0.71203236    -0.74900
O932        O  0.89329101  0.50879816  0.79550036    -0.80100
C933        C  0.92399943  0.51654591  0.69580183     1.00900
C934        C  0.92913282  0.52037067  0.80882992     1.06800
O935        O  0.94764927  0.50484553  0.70996334    -0.75800
C936        C  0.79830221  0.39395343  0.69905754     1.05100
C937        C  0.65777727  0.33297332  0.94219592     0.88700
C938        C  0.97715979  0.61638561  0.92347703    -0.51600
C939        C  0.97781455  0.61837934  0.88312715     0.11600
C940        C  0.66136482  0.32882851  0.86511589     0.22500
C941        C  0.70192221  0.35397218  0.92632920    -0.52300
C942        C  0.70349839  0.35148921  0.88599127     0.11700
C943        C  0.97343282  0.34166839  0.92538559    -0.51800
C944        C  0.97560977  0.34468158  0.88499282     0.12300
H945        H  0.96388660  0.58776488  0.93934039     0.16800
H946        H  0.66282790  0.32713222  0.83222060     0.02500
H947        H  0.72914655  0.36948267  0.94525412     0.17100
H948        H  0.95738947  0.35302585  0.94292623     0.16900
C949        C  0.66184725  0.32134374  0.55882268     0.88700
C950        C  0.96542307  0.34861690  0.57865581    -0.51600
C951        C  0.96459548  0.34380689  0.61877427     0.11600
C952        C  0.65868386  0.65693374  0.63003419     0.22500
C953        C  0.70429746  0.34314373  0.57944277    -0.52300
C954        C  0.70257671  0.34528208  0.61975515     0.11700
C955        C  0.97069886  0.60968835  0.57771776    -0.51800
C956        C  0.97113918  0.61112082  0.61821523     0.12300
H957        H  0.95121264  0.36384351  0.56361061     0.16800
H958        H  0.65892058  0.65547374  0.66307900     0.02500
H959        H  0.73295728  0.35555808  0.56363796     0.17100
H960        H  0.95695421  0.58133280  0.56111654     0.16900
C961        C  0.96103663  0.58266688  0.85833921    -0.11100
C962        C  0.94662732  0.55326203  0.83690612    -0.12700
C963        C  0.77049837  0.38360199  0.84271483    -0.11100
C964        C  0.74125987  0.36957010  0.86422654    -0.12700
C965        C  0.95696951  0.36330136  0.86182398    -0.11100
C966        C  0.94205240  0.37813213  0.84041301    -0.12700
C967        C  0.95344187  0.57532164  0.64274400    -0.11100
C968        C  0.93939527  0.54714606  0.66552087    -0.12700
C969        C  0.73847739  0.36388976  0.64528159    -0.11100
C970        C  0.76680042  0.37829497  0.66877247    -0.12700
C971        C  0.94666630  0.36018673  0.64478989    -0.11100
C972        C  0.93385339  0.37472688  0.66818850    -0.12700
C973        C  0.66351396  0.31821325  0.51399099    -0.14300
C974        C  0.68324135  0.35102493  0.49060164    -0.29400
H975        H  0.97375676  0.35250005  0.50022723     0.14800
H976        H  0.71540844  0.69073842  0.49258144     0.15300
C977        C  0.66813457  0.32522920  0.01834584    -0.14300
C978        C  0.65479702  0.33659613  0.98700666    -0.29400
H979        H  0.01754639  0.37860773  0.00056380     0.14800
H980        H  0.64260952  0.61980785  0.99619553     0.15300
C981        C  0.71357714  0.63322605  0.35267986    -0.11100
C982        C  0.72673234  0.61796438  0.33043985    -0.11900
C983        C  0.92841759  0.63855904  0.35837412    -0.11100
C984        C  0.90033233  0.62369549  0.33426132    -0.12700
C985        C  0.73164739  0.44945053  0.33525148    -0.11100
C986        C  0.71901396  0.42146547  0.35838627    -0.12700
C987        C  0.70955221  0.62965764  0.13403347    -0.11100
C988        C  0.72301226  0.61413332  0.15661703    -0.12700
C989        C  0.89608272  0.61804832  0.15792051    -0.11100
C990        C  0.92478666  0.63375985  0.13587475    -0.12700
C991        C  0.71124675  0.41414424  0.14161142    -0.11100
C992        C  0.72671675  0.44400764  0.16267350    -0.12700
Fe993      Fe  0.81811725  0.95717462  0.24558588     1.65800
Fe994      Fe  0.81851206  0.86730740  0.24726973     1.73200
Fe995      Fe  0.72734696  0.86674176  0.24696969     1.54400
O996        O  0.72396974  0.90524851  0.28804803    -0.79500
O997        O  0.78376329  0.82911167  0.20129313    -0.77800
O998        O  0.78494445  0.96199991  0.29129400    -0.82000
O999        O  0.77913999  0.96029998  0.20338893    -0.76900
O1000       O  0.72490712  0.83016344  0.29373110    -0.78600
O1001       O  0.86017657  0.90445321  0.20561692    -0.81400
C1002       C  0.74402928  0.93598400  0.18860758     0.99400
C1003       C  0.74832179  0.94009818  0.30249465     1.06800
O1004       O  0.78796046  0.89706558  0.24660113    -1.10400
O1005       O  0.85666201  0.90184861  0.29366240    -0.72800
O1006       O  0.86125463  0.96235807  0.28781247    -0.76300
O1007       O  0.72222081  0.89959050  0.20011710    -0.77000
C1008       C  0.87158964  0.93862476  0.30403275     0.98300
O1009       O  0.85479300  0.95988160  0.19958863    -0.74900
O1010       O  0.78115886  0.82533394  0.28861651    -0.80100
C1011       C  0.74626237  0.81325859  0.19131848     1.00900
C1012       C  0.74691798  0.81507213  0.30398206     1.06800
O1013       O  0.72228684  0.82372069  0.20624890    -0.75800
C1014       C  0.86963650  0.93802483  0.18943255     1.05100
C1015       C  0.67389053  0.67744463  0.05381028     0.88700
C1016       C  0.69825352  0.98996722  0.07271402    -0.51600
C1017       C  0.69607132  0.98620767  0.11314275     0.11600
C1018       C  0.67284065  0.67230094  0.13123836     0.22500
C1019       C  0.96395598  0.98673782  0.07217193    -0.52300
C1020       C  0.96414475  0.98526130  0.11270409     0.11700
C1021       C  0.69654414  0.71873111  0.07524997    -0.51800
C1022       C  0.69593219  0.71597392  0.11559600     0.12300
H1023       H  0.71355403  0.97822327  0.05458737     0.16800
H1024       H  0.67241817  0.67025158  0.16424721     0.02500
H1025       H  0.93593717  0.97301977  0.05422915     0.17100
H1026       H  0.71150959  0.74765442  0.05989809     0.16900
C1027       C  0.67889247  0.67478035  0.43677790     0.88700
C1028       C  0.70118312  0.71760487  0.41874676    -0.51600
C1029       C  0.69993187  0.71775610  0.37820791     0.11600
C1030       C  0.67685873  0.67540498  0.35915334     0.22500
C1031       C  0.96722451  0.99189879  0.42404107    -0.52300
C1032       C  0.96746087  0.98997296  0.38347769     0.11700
C1033       C  0.69848860  0.98020432  0.42157187    -0.51800
C1034       C  0.69921952  0.98440961  0.38129175     0.12300
H1035       H  0.71644205  0.74524611  0.43647640     0.16800
H1036       H  0.67609296  0.67566564  0.32607568     0.02500
H1037       H  0.93918449  0.97795840  0.44095856     0.17100
H1038       H  0.71266674  0.96512643  0.43693933     0.16900
Fe1039     Fe  0.85182423  0.70590426  0.74884080     1.65800
Fe1040     Fe  0.85199579  0.79618038  0.74609317     1.73200
Fe1041     Fe  0.94308682  0.79623282  0.74748082     1.54400
O1042       O  0.94774266  0.76269755  0.79402531    -0.79500
O1043       O  0.88846724  0.83619559  0.70277929    -0.77800
O1044       O  0.88979587  0.70284767  0.79246616    -0.82000
O1045       O  0.88587388  0.70067376  0.70395028    -0.76900
O1046       O  0.94826489  0.83880675  0.78892591    -0.78600
O1047       O  0.81215491  0.76013429  0.70156141    -0.81400
C1048       C  0.92210929  0.72286452  0.69172588     0.99400
C1049       C  0.92523853  0.72689519  0.80678386     1.06800
O1050       O  0.88232441  0.76614101  0.74744651    -1.10400
O1051       O  0.81163294  0.76075694  0.78979667    -0.72800
O1052       O  0.81388995  0.70346494  0.79385861    -0.76300
O1053       O  0.94630952  0.75811914  0.70550771    -0.77000
C1054       C  0.80060901  0.72639591  0.80514495     0.98300
O1055       O  0.80953600  0.70043766  0.70549292    -0.74900
O1056       O  0.88800598  0.83649489  0.79004822    -0.80100
C1057       C  0.92387949  0.84789892  0.68939662     1.00900
C1058       C  0.92481504  0.85093592  0.80180500     1.06800
O1059       O  0.94648588  0.83405920  0.70148623    -0.75800
C1060       C  0.79808934  0.72375769  0.69038721     1.05100
C1061       C  0.66031122  0.65501044  0.93883673     0.88700
C1062       C  0.96937717  0.94469858  0.91845856    -0.51600
C1063       C  0.97060796  0.94773726  0.87808581     0.11600
C1064       C  0.66277062  0.66079643  0.86148591     0.22500
C1065       C  0.70420294  0.67740959  0.92233752    -0.52300
C1066       C  0.70517761  0.68032164  0.88176478     0.11700
C1067       C  0.97411299  0.67878947  0.92635675    -0.51800
C1068       C  0.97486286  0.68063999  0.88565703     0.12300
H1069       H  0.95561855  0.91570611  0.93367037     0.16800
H1070       H  0.66376663  0.66308935  0.82849223     0.02500
H1071       H  0.73169857  0.68934252  0.94092661     0.17100
H1072       H  0.95878478  0.69067784  0.94423692     0.16900
C1073       C  0.65781967  0.66015851  0.55252545     0.88700
C1074       C  0.96918679  0.67296658  0.57525252    -0.51600
C1075       C  0.96975841  0.67417352  0.61592498     0.11600
C1076       C  0.65730096  0.99303289  0.63445964     0.22500
C1077       C  0.70148766  0.68034240  0.57145724    -0.52300
C1078       C  0.70142932  0.67833830  0.61202979     0.11700
C1079       C  0.97329248  0.94638052  0.57624528    -0.51800
C1080       C  0.97256340  0.94679856  0.61667467     0.12300
H1081       H  0.95446055  0.68569788  0.55694785     0.16800
H1082       H  0.65827275  0.99058822  0.66738388     0.02500
H1083       H  0.72986041  0.69478052  0.55525638     0.17100
H1084       H  0.96049947  0.91838517  0.55912852     0.16900
C1085       C  0.95441213  0.91265301  0.85226541    -0.11100
C1086       C  0.94103820  0.88371863  0.83016451    -0.12700
C1087       C  0.77041206  0.71212394  0.83591663    -0.11100
C1088       C  0.74235649  0.69865985  0.85893355    -0.12700
C1089       C  0.95568528  0.69856676  0.86173089    -0.11100
C1090       C  0.94120497  0.71226675  0.83810390    -0.12700
C1091       C  0.95473300  0.91004578  0.63998734    -0.11100
C1092       C  0.94012391  0.88026568  0.66081072    -0.12700
C1093       C  0.73816314  0.69476088  0.63651208    -0.11100
C1094       C  0.76665535  0.70793903  0.65988381    -0.12700
C1095       C  0.95108429  0.69242549  0.63906638    -0.11100
C1096       C  0.93704244  0.70676053  0.66169424    -0.12700
C1097       C  0.65303868  0.65995668  0.50763020    -0.14300
C1098       C  0.68402562  0.67603038  0.48174501    -0.29400
H1099       H  0.97641914  0.61967136  0.49872716     0.14800
H1100       H  0.69094950  0.97820671  0.50035978     0.15300
C1101       C  0.67531154  0.68206661  0.00884520    -0.14300
C1102       C  0.65822685  0.65018999  0.98378760    -0.29400
H1103       H  0.02723821  0.71622907  0.00162544     0.14800
H1104       H  0.65009611  0.95492751  0.99803328     0.15300
C1105       C  0.71844759  0.96898004  0.35542654    -0.11100
C1106       C  0.73309694  0.95589465  0.33225082    -0.11900
C1107       C  0.93085293  0.96976680  0.35873183    -0.11100
C1108       C  0.90265095  0.95465859  0.33497923    -0.12700
C1109       C  0.73165154  0.78345561  0.33324175    -0.11100
C1110       C  0.71789140  0.75446812  0.35501151    -0.12700
C1111       C  0.71366628  0.96629013  0.13607600    -0.11100
C1112       C  0.72764795  0.95118936  0.15845172    -0.12700
C1113       C  0.89971773  0.95258783  0.15893191    -0.11100
C1114       C  0.92758668  0.96634724  0.13595017    -0.12700
C1115       C  0.71459869  0.75135162  0.14108202    -0.11100
C1116       C  0.72959321  0.78055820  0.16288946    -0.12700
loop_ 
_geom_bond_atom_site_label_1 
_geom_bond_atom_site_label_2 
_geom_bond_distance 
_geom_bond_site_symmetry_2 
_ccdc_geom_bond_type 
Fe1          O17   2.066       .  S
Fe1           O7   2.068       .  S
Fe1          O14   2.069       .  S
Fe1           O6   2.063       .  S
Fe1          O12   1.984       .  S
Fe2           O5   2.059       .  S
Fe2           O9   2.071       .  S
Fe2          O13   2.062       .  S
Fe2          O18   2.068       .  S
Fe2          O12   1.982       .  S
Fe3          O21   2.073       .  S
Fe3           O8   2.069       .  S
Fe3          O15   2.067       .  S
Fe3           O4   2.070       .  S
Fe3          O12   1.984       .  S
O4           C11   1.269       .  A
O5           C19   1.267       .  A
O6           C11   1.267       .  A
O7           C10   1.267       .  A
O8           C20   1.267       .  A
O9           C22   1.268       .  A
C10          O15   1.267       .  A
C10         C120   1.438       .  S
C11         C114   1.435       .  S
O13          C16   1.267       .  A
O14          C16   1.268       .  A
C16         C116   1.436       .  S
O17          C22   1.267       .  A
O18          C20   1.267       .  A
C19          O21   1.270       .  A
C19         C124   1.434       .  S
C20         C117   1.439       .  S
C22         C121   1.438       .  S
C23          C29   1.539       .  S
C23         C109   1.520       .  S
C23         C272   1.550   1_545  S
C23        C1019   1.540   1_445  S
C24         C147   1.539       .  S
C24          H31   1.086       .  S
C24          C25   1.363       .  D
C25         C150   1.535   1_455  S
C25         C119   1.444       .  S
C26          C30   1.531       .  S
C26         C273   1.534   1_545  S
C26        C1020   1.531   1_445  S
C26          H32   1.112       .  S
C27         C519   1.544       .  S
C27          H33   1.086       .  S
C27          C28   1.363       .  D
C28         C522   1.534       .  S
C28         C122   1.444       .  S
C29          H34   1.087       .  S
C29          C30   1.360       .  D
C30         C123   1.441       .  S
C35          C36   1.541       .  S
C35         C106   1.526       .  S
C35         C289   1.548   1_545  S
C35        C1031   1.544   1_445  S
C36          H43   1.086       .  S
C36          C37   1.363       .  D
C37          C38   1.534       .  S
C37         C118   1.446       .  S
C38         C290   1.534   1_545  S
C38        C1032   1.533   1_445  S
C38          H44   1.112       .  S
C39         C531   1.538       .  S
C39          H45   1.086       .  S
C39          C40   1.364       .  D
C40         C534   1.535       .  S
C40         C115   1.442       .  S
C41         C159   1.538       .  S
C41          H46   1.086       .  S
C41          C42   1.361       .  D
C42         C162   1.533       .  S
C42         C113   1.441       .  S
Fe47         O63   2.071       .  S
Fe47         O53   2.067       .  S
Fe47         O60   2.064       .  S
Fe47         O52   2.069       .  S
Fe47         O58   1.984       .  S
Fe48         O51   2.069       .  S
Fe48         O55   2.076       .  S
Fe48         O59   2.070       .  S
Fe48         O64   2.073       .  S
Fe48         O58   1.987       .  S
Fe49         O67   2.077       .  S
Fe49         O54   2.067       .  S
Fe49         O61   2.072       .  S
Fe49         O50   2.078       .  S
Fe49         O58   1.986       .  S
O50          C57   1.270       .  A
O51          C65   1.268       .  A
O52          C57   1.268       .  A
O53          C56   1.267       .  A
O54          C66   1.267       .  A
O55          C68   1.269       .  A
C56          O61   1.268       .  A
C56         C104   1.441       .  S
C57          C98   1.443       .  S
O59          C62   1.268       .  A
O60          C62   1.266       .  A
C62          C95   1.437       .  S
O63          C68   1.269       .  A
O64          C66   1.269       .  A
C65          O67   1.270       .  A
C65         C100   1.442       .  S
C66          C94   1.438       .  S
C68         C102   1.443       .  S
C69          C73   1.541   1_665  S
C69         C110   1.521       .  S
C69        C1062   1.538       .  S
C69         C819   1.549   1_565  S
C70         C565   1.544       .  S
C70          H77   1.086       .  S
C70          C71   1.364       .  D
C71         C568   1.534       .  S
C71          C93   1.444       .  S
C72          C74   1.534   1_665  S
C72        C1063   1.536       .  S
C72         C820   1.535   1_565  S
C72          H78   1.112       .  S
C73          H79   1.086       .  S
C73          C74   1.363       .  D
C74          C96   1.443       .  S
C75         C441   1.543   1_545  S
C75          H80   1.086       .  S
C75          C76   1.367       .  D
C76         C444   1.536   1_545  S
C76          C97   1.449       .  S
C81          C85   1.543   1_665  S
C81         C105   1.525       .  S
C81         C826   1.547   1_565  S
C81        C1079   1.539       .  S
C82         C453   1.543   1_545  S
C82          H89   1.086       .  S
C82          C83   1.364       .  D
C83         C704   1.534   1_545  S
C83         C103   1.448       .  S
C84         C951   1.532       .  S
C84         C832   1.534       .  S
C84         C210   1.531   1_655  S
C84          H90   1.112       .  S
C85          H91   1.086       .  S
C85          C86   1.368       .  D
C86         C332   1.537   1_445  S
C86         C101   1.449       .  S
C87         C577   1.542       .  S
C87          H92   1.086       .  S
C87          C88   1.364       .  D
C88         C456   1.535       .  S
C88          C99   1.448       .  S
C93          C94   1.207       .  T
C95          C96   1.207       .  T
C97          C98   1.210       .  T
C99         C100   1.210       .  T
C101        C102   1.211       .  T
C103        C104   1.209       .  T
C105        H851   1.087       .  S
C105        C106   1.346   1_665  D
C106        H356   1.087       .  S
H107        C477   1.087       .  S
H108        C230   1.087       .  S
C109        H855   1.087   1_554  S
C109        C110   1.344   1_444  D
C110        H360   1.087       .  S
H111        C481   1.087       .  S
H112        C234   1.087   1_554  S
C113        C114   1.206       .  T
C115        C116   1.206       .  T
C117        C118   1.208       .  T
C119        C120   1.207       .  T
C121        C122   1.207       .  T
C123        C124   1.205       .  T
Fe125       O141   2.067       .  S
Fe125       O131   2.071       .  S
Fe125       O138   2.066       .  S
Fe125       O130   2.072       .  S
Fe125       O136   1.985       .  S
Fe126       O129   2.070       .  S
Fe126       O133   2.071       .  S
Fe126       O137   2.063       .  S
Fe126       O142   2.075       .  S
Fe126       O136   1.983       .  S
Fe127       O145   2.083       .  S
Fe127       O132   2.083       .  S
Fe127       O139   2.086       .  S
Fe127       O128   2.080       .  S
Fe127       O136   1.983       .  S
O128        C135   1.269       .  A
O129        C143   1.268       .  A
O130        C135   1.268       .  A
O131        C134   1.268       .  A
O132        C144   1.271       .  A
O133        C146   1.268       .  A
C134        O139   1.272       .  A
C134        C244   1.448       .  S
C135        C238   1.446       .  S
O137        C140   1.267       .  A
O138        C140   1.268       .  A
C140        C240   1.433       .  S
O141        C146   1.268       .  A
O142        C144   1.269       .  A
C143        O145   1.270       .  A
C143        C248   1.446       .  S
C144        C241   1.448       .  S
C146        C245   1.439       .  S
C147        C153   1.545       .  S
C147        C771   1.548   1_455  S
C147        C233   1.526       .  S
C148        C271   1.548       .  S
C148        H155   1.086       .  S
C148        C149   1.371       .  D
C149        C274   1.535       .  S
C149        C243   1.453       .  S
C150        C154   1.534   1_655  S
C150        C772   1.534       .  S
C150        H156   1.112       .  S
C151        C643   1.539       .  S
C151        H157   1.087       .  S
C151        C152   1.363       .  D
C152        C646   1.537       .  S
C152        C246   1.446       .  S
C153        H158   1.086       .  S
C153        C154   1.366       .  D
C154        C247   1.452       .  S
C159        C160   1.549       .  S
C159        C783   1.537   1_455  S
C159        C230   1.516       .  S
C160        H167   1.086       .  S
C160        C161   1.372       .  D
C161        C162   1.535       .  S
C161        C242   1.454       .  S
C162        C784   1.532   1_455  S
C162        H168   1.112       .  S
C163        C655   1.547       .  S
C163        H169   1.082       .  S
C163        C164   1.361       .  D
C164        C658   1.532       .  S
C164        C239   1.440       .  S
C165        C283   1.545       .  S
C165        H170   1.086       .  S
C165        C166   1.368       .  D
C166        C286   1.536       .  S
C166        C237   1.451       .  S
Fe171       O187   2.062       .  S
Fe171       O177   2.074       .  S
Fe171       O184   2.078       .  S
Fe171       O176   2.063       .  S
Fe171       O182   1.986       .  S
Fe172       O175   2.081       .  S
Fe172       O179   2.065       .  S
Fe172       O183   2.084       .  S
Fe172       O188   2.067       .  S
Fe172       O182   1.986       .  S
Fe173       O191   2.066       .  S
Fe173       O178   2.079       .  S
Fe173       O185   2.080       .  S
Fe173       O174   2.068       .  S
Fe173       O182   1.985       .  S
O174        C181   1.268       .  A
O175        C189   1.271       .  A
O176        C181   1.267       .  A
O177        C180   1.268       .  A
O178        C190   1.270       .  A
O179        C192   1.267       .  A
C180        O185   1.270       .  A
C180        C228   1.447       .  S
C181        C222   1.435       .  S
O183        C186   1.271       .  A
O184        C186   1.270       .  A
C186        C219   1.451       .  S
O187        C192   1.266       .  A
O188        C190   1.267       .  A
C189        O191   1.268       .  A
C189        C224   1.442       .  S
C190        C218   1.443       .  S
C192        C226   1.433       .  S
C193        C814   1.543       .  S
C193        C943   1.539       .  S
C193        C197   1.550   1_655  S
C193        C234   1.526       .  S
C194        C689   1.539       .  S
C194        H201   1.087       .  S
C194        C195   1.363       .  D
C195        C692   1.536       .  S
C195        C217   1.448       .  S
C196        C815   1.533       .  S
C196        C944   1.534       .  S
C196        C198   1.534   1_655  S
C196        H202   1.112   1_655  S
C197        H203   1.086       .  S
C197        C198   1.372       .  D
C198        C220   1.456       .  S
C199        C565   1.537       .  S
C199        H204   1.087       .  S
C199        C200   1.362       .  D
C200        C568   1.532       .  S
C200        C221   1.441       .  S
C205        C950   1.537       .  S
C205        C831   1.551       .  S
C205        C209   1.539   1_655  S
C205        C229   1.516       .  S
C206        C577   1.546       .  S
C206        H213   1.086       .  S
C206        C207   1.370       .  D
C207        C456   1.537       .  S
C207        C227   1.453       .  S
C208       C1075   1.535       .  S
C208        C956   1.534       .  S
C208        C334   1.534   1_655  S
C208        H214   1.112       .  S
C209        H215   1.086       .  S
C209        C210   1.362       .  D
C210        C225   1.439       .  S
C211        C701   1.543       .  S
C211        H216   1.086       .  S
C211        C212   1.365       .  D
C212        C580   1.533       .  S
C212        C223   1.448       .  S
C217        C218   1.210       .  T
C219        C220   1.215       .  T
C221        C222   1.206       .  T
C223        C224   1.210       .  T
C225        C226   1.204       .  T
C227        C228   1.213       .  T
C229        H975   1.087       .  S
C229        C230   1.343   1_655  D
H231        C601   1.087       .  S
H232        C354   1.087       .  S
C233        H979   1.087       .  S
C233        C234   1.349   1_454  D
H235        C605   1.208       .  S
H236        C358   1.087   1_554  S
C237        C238   1.212       .  T
C239        C240   1.205       .  T
C241        C242   1.213       .  T
C243        C244   1.213       .  T
C245        C246   1.208       .  T
C247        C248   1.212       .  T
Fe249       O265   2.073       .  S
Fe249       O255   2.082       .  S
Fe249       O262   2.079       .  S
Fe249       O254   2.077       .  S
Fe249       O260   1.985       .  S
Fe250       O253   2.062       .  S
Fe250       O257   2.065       .  S
Fe250       O261   2.066       .  S
Fe250       O266   2.062       .  S
Fe250       O260   1.985       .  S
Fe251       O269   2.075       .  S
Fe251       O256   2.070       .  S
Fe251       O263   2.079       .  S
Fe251       O252   2.080       .  S
Fe251       O260   1.985       .  S
O252        C259   1.270       .  A
O253        C267   1.266       .  A
O254        C259   1.269       .  A
O255        C258   1.270       .  A
O256        C268   1.269       .  A
O257        C270   1.267       .  A
C258        O263   1.270       .  A
C258        C368   1.451       .  S
C259        C362   1.448       .  S
O261        C264   1.266       .  A
O262        C264   1.270       .  A
C264        C364   1.443       .  S
O265        C270   1.269       .  A
O266        C268   1.268       .  A
C267        O269   1.269       .  A
C267        C372   1.439       .  S
C268        C365   1.435       .  S
C270        C369   1.438       .  S
C271        C277   1.537       .  S
C271        C895   1.542   1_455  S
C271        C357   1.520       .  S
C272        H279   1.086       .  S
C272        C273   1.373       .  D
C273        C367   1.456       .  S
C274        C278   1.536       .  S
C274        C896   1.532   1_455  S
C274        H280   1.112       .  S
C275        C395   1.543   1_565  S
C275        H281   1.086       .  S
C275        C276   1.366       .  D
C276        C398   1.533   1_565  S
C276        C370   1.444       .  S
C277        H282   1.086       .  S
C277        C278   1.361       .  D
C278        C371   1.445       .  S
C283        C284   1.538       .  S
C283        C907   1.546   1_455  S
C283        C354   1.521       .  S
C284        H291   1.087       .  S
C284        C285   1.360       .  D
C285        C286   1.534       .  S
C285        C366   1.441       .  S
C286        C908   1.535   1_455  S
C286        H292   1.112       .  S
C287        C407   1.542       .  S
C287        H293   1.086       .  S
C287        C288   1.365       .  D
C288        C410   1.535   1_565  S
C288        C363   1.449       .  S
C289        H294   1.086       .  S
C289        C290   1.370       .  D
C290        C361   1.454       .  S
Fe295       O311   2.073       .  S
Fe295       O301   2.073       .  S
Fe295       O308   2.074       .  S
Fe295       O300   2.069       .  S
Fe295       O306   1.986       .  S
Fe296       O299   2.079       .  S
Fe296       O303   2.069       .  S
Fe296       O307   2.078       .  S
Fe296       O312   2.067       .  S
Fe296       O306   1.985       .  S
Fe297       O315   2.077       .  S
Fe297       O302   2.071       .  S
Fe297       O309   2.075       .  S
Fe297       O298   2.077       .  S
Fe297       O306   1.986       .  S
O298        C305   1.269       .  A
O299        C313   1.270       .  A
O300        C305   1.267       .  A
O301        C304   1.269       .  A
O302        C314   1.269       .  A
O303        C316   1.268       .  A
C304        O309   1.269       .  A
C304        C352   1.443       .  S
C305        C346   1.442       .  S
O307        C310   1.269       .  A
O308        C310   1.269       .  A
C310        C343   1.445       .  S
O311        C316   1.269       .  A
O312        C314   1.268       .  A
C313        O315   1.269       .  A
C313        C348   1.448       .  S
C314        C342   1.438       .  S
C316        C350   1.441       .  S
C317        C938   1.536       .  S
C317       C1067   1.547       .  S
C317        C321   1.545   1_655  S
C317        C358   1.520       .  S
C318        C441   1.539       .  S
C318        H325   1.087       .  S
C318        C319   1.361       .  D
C319        C444   1.535       .  S
C319        C341   1.444       .  S
C320        C939   1.533       .  S
C320       C1068   1.536       .  S
C320        C322   1.535   1_655  S
C320        H326   1.112       .  S
C321        H327   1.086       .  S
C321        C322   1.368       .  D
C322        C344   1.450       .  S
C323        C689   1.551       .  S
C323        H328   1.083       .  S
C323        C324   1.367       .  D
C324        C692   1.535       .  S
C324        C345   1.448       .  S
C329       C1074   1.545       .  S
C329        C955   1.540       .  S
C329        C333   1.544   1_655  S
C329        C353   1.521       .  S
C330        C701   1.546       .  S
C330        H337   1.086       .  S
C330        C331   1.367       .  D
C331        C580   1.532       .  S
C331        C351   1.449       .  S
C332        C827   1.537   1_565  S
C332       C1080   1.536       .  S
C332        H338   1.112       .  S
C333        H339   1.086       .  S
C333        C334   1.367       .  D
C334        C349   1.448       .  S
C335        C453   1.547       .  S
C335        H340   1.086       .  S
C335        C336   1.370       .  D
C336        C704   1.536       .  S
C336        C347   1.454       .  S
C341        C342   1.207       .  T
C343        C344   1.211       .  T
C345        C346   1.210       .  T
C347        C348   1.214       .  T
C349        C350   1.210       .  T
C351        C352   1.211       .  T
C353       H1099   1.087       .  S
C353        C354   1.345   1_655  D
H355        C725   1.080       .  S
C357       H1103   1.087       .  S
C357        C358   1.342   1_454  D
H359        C729   1.082       .  S
C361        C362   1.213       .  T
C363        C364   1.210       .  T
C365        C366   1.206       .  T
C367        C368   1.215       .  T
C369        C370   1.207       .  T
C371        C372   1.208       .  T
Fe373       O389   2.077       .  S
Fe373       O379   2.060       .  S
Fe373       O386   2.058       .  S
Fe373       O378   2.078       .  S
Fe373       O384   1.982       .  S
Fe374       O377   2.068       .  S
Fe374       O381   2.074       .  S
Fe374       O385   2.068       .  S
Fe374       O390   2.072       .  S
Fe374       O384   1.985       .  S
Fe375       O393   2.069       .  S
Fe375       O380   2.076       .  S
Fe375       O387   2.077       .  S
Fe375       O376   2.073       .  S
Fe375       O384   1.985       .  S
O376        C383   1.268       .  A
O377        C391   1.268       .  A
O378        C383   1.269       .  A
O379        C382   1.266       .  A
O380        C392   1.269       .  A
O381        C394   1.268       .  A
C382        O387   1.270       .  A
C382        C492   1.438       .  S
C383        C486   1.446       .  S
O385        C388   1.268       .  A
O386        C388   1.266       .  A
C388        C488   1.432       .  S
O389        C394   1.269       .  A
O390        C392   1.268       .  A
C391        O393   1.268       .  A
C391        C496   1.438       .  S
C392        C489   1.443       .  S
C394        C493   1.446       .  S
C395        C644   1.543   1_545  S
C395        C401   1.541       .  S
C395        C481   1.518       .  S
C396        C519   1.538       .  S
C396        H403   1.087       .  S
C396        C397   1.364       .  D
C397        C522   1.535       .  S
C397        C491   1.444       .  S
C398        C645   1.535   1_545  S
C398        C402   1.533       .  S
C398        H404   1.112       .  S
C399        C891   1.546       .  S
C399        H405   1.086       .  S
C399        C400   1.367       .  D
C400        C894   1.536       .  S
C400        C494   1.451       .  S
C401        H406   1.086       .  S
C401        C402   1.363       .  D
C402        C495   1.444       .  S
C407        C408   1.545   1_565  S
C407        C661   1.544       .  S
C407        C478   1.525       .  S
C408        H415   1.086       .  S
C408        C409   1.368       .  D
C409        C410   1.535       .  S
C409        C490   1.449       .  S
C410        C662   1.536   1_545  S
C410        H416   1.112       .  S
C411        C903   1.537       .  S
C411        H417   1.087       .  S
C411        C412   1.360       .  D
C412        C906   1.534       .  S
C412        C487   1.438       .  S
C413        C531   1.546       .  S
C413        H418   1.086       .  S
C413        C414   1.369       .  D
C414        C534   1.536       .  S
C414        C485   1.451       .  S
Fe419       O435   2.070       .  S
Fe419       O425   2.071       .  S
Fe419       O432   2.073       .  S
Fe419       O424   2.066       .  S
Fe419       O430   1.985       .  S
Fe420       O423   2.074       .  S
Fe420       O427   2.065       .  S
Fe420       O431   2.075       .  S
Fe420       O436   2.063       .  S
Fe420       O430   1.986       .  S
Fe421       O439   2.072       .  S
Fe421       O426   2.074       .  S
Fe421       O433   2.075       .  S
Fe421       O422   2.072       .  S
Fe421       O430   1.985       .  S
O422        C429   1.269       .  A
O423        C437   1.268       .  A
O424        C429   1.267       .  A
O425        C428   1.268       .  A
O426        C438   1.269       .  A
O427        C440   1.267       .  A
C428        O433   1.269       .  A
C428        C476   1.442       .  S
C429        C470   1.439       .  S
O431        C434   1.268       .  A
O432        C434   1.268       .  A
C434        C467   1.444       .  S
O435        C440   1.268       .  A
O436        C438   1.267       .  A
C437        O439   1.268       .  A
C437        C472   1.442       .  S
C438        C466   1.438       .  S
C440        C474   1.437       .  S
C441        C445   1.544   1_565  S
C441        C482   1.518       .  S
C442        C937   1.545       .  S
C442        H449   1.086       .  S
C442        C443   1.364       .  D
C443        C940   1.535       .  S
C443        C465   1.444       .  S
C444        C446   1.535   1_565  S
C444        H450   1.112   1_565  S
C445        H451   1.086       .  S
C445        C446   1.367       .  D
C446        C468   1.449       .  S
C447        C813   1.541   1_545  S
C447        H452   1.086       .  S
C447        C448   1.365       .  D
C448        C816   1.535   1_545  S
C448        C469   1.445       .  S
C453        C457   1.541   1_565  S
C453        C477   1.524   1_565  S
C454        C825   1.541   1_545  S
C454        H461   1.086       .  S
C454        C455   1.364       .  D
C455       C1076   1.537   1_545  S
C455        C475   1.449       .  S
C456        C582   1.534       .  S
C456        H462   1.112       .  S
C457        H463   1.086       .  S
C457        C458   1.365       .  D
C458        C704   1.534   1_545  S
C458        C473   1.443       .  S
C459        C949   1.543       .  S
C459        H464   1.086       .  S
C459        C460   1.364       .  D
C460        C828   1.534       .  S
C460        C471   1.448       .  S
C465        C466   1.207       .  T
C467        C468   1.211       .  T
C469        C470   1.208       .  T
C471        C472   1.210       .  T
C473        C474   1.207       .  T
C475        C476   1.210       .  T
C477        C478   1.349   1_545  D
C478        H728   1.087       .  S
H479        C849   1.087       .  S
H480        C602   1.087       .  S
C481        C482   1.344   1_544  D
C482        H732   1.087   1_556  S
H483        C853   1.087   1_556  S
H484        C606   1.209       .  S
C485        C486   1.212       .  T
C487        C488   1.204       .  T
C489        C490   1.211       .  T
C491        C492   1.207       .  T
C493        C494   1.212       .  T
C495        C496   1.207       .  T
Fe497       O513   2.070       .  S
Fe497       O503   2.072       .  S
Fe497       O510   2.070       .  S
Fe497       O502   2.069       .  S
Fe497       O508   1.986       .  S
Fe498       O501   2.066       .  S
Fe498       O505   2.074       .  S
Fe498       O509   2.066       .  S
Fe498       O514   2.072       .  S
Fe498       O508   1.986       .  S
Fe499       O517   2.075       .  S
Fe499       O504   2.070       .  S
Fe499       O511   2.073       .  S
Fe499       O500   2.079       .  S
Fe499       O508   1.985       .  S
O500        C507   1.270       .  A
O501        C515   1.267       .  A
O502        C507   1.268       .  A
O503        C506   1.268       .  A
O504        C516   1.268       .  A
O505        C518   1.269       .  A
C506        O511   1.268       .  A
C506        C616   1.442       .  S
C507        C610   1.444       .  S
O509        C512   1.267       .  A
O510        C512   1.268       .  A
C512        C612   1.438       .  S
O513        C518   1.268       .  A
O514        C516   1.269       .  A
C515        O517   1.269       .  A
C515        C620   1.440       .  S
C516        C613   1.441       .  S
C518        C617   1.441       .  S
C519        C525   1.544       .  S
C519        C605   1.524       .  S
C520        C643   1.552       .  S
C520        H527   1.083       .  S
C520        C521   1.367       .  D
C521        C646   1.535       .  S
C521        C615   1.449       .  S
C522        C526   1.536       .  S
C522        H528   1.112       .  S
C523       C1015   1.544       .  S
C523        H529   1.086       .  S
C523        C524   1.367       .  D
C524       C1018   1.535       .  S
C524        C618   1.447       .  S
C525        H530   1.086       .  S
C525        C526   1.363       .  D
C526        C619   1.446       .  S
C531        C532   1.541       .  S
C531        C602   1.519       .  S
C532        H539   1.086       .  S
C532        C533   1.363       .  D
C533        C534   1.535       .  S
C533        C614   1.447       .  S
C534        H540   1.112       .  S
C535       C1027   1.552       .  S
C535        H541   1.082       .  S
C535        C536   1.365       .  D
C536       C1030   1.531       .  S
C536        C611   1.444       .  S
C537        C655   1.546       .  S
C537        H542   1.086       .  S
C537        C538   1.367       .  D
C538        C658   1.534       .  S
C538        C609   1.450       .  S
Fe543       O559   2.067       .  S
Fe543       O549   2.072       .  S
Fe543       O556   2.068       .  S
Fe543       O548   2.065       .  S
Fe543       O554   1.981       .  S
Fe544       O547   2.062       .  S
Fe544       O551   2.061       .  S
Fe544       O555   2.065       .  S
Fe544       O560   2.060       .  S
Fe544       O554   1.985       .  S
Fe545       O563   2.062       .  S
Fe545       O550   2.070       .  S
Fe545       O557   2.073       .  S
Fe545       O546   2.064       .  S
Fe545       O554   1.983       .  S
O546        C553   1.267       .  A
O547        C561   1.267       .  A
O548        C553   1.267       .  A
O549        C552   1.269       .  A
O550        C562   1.267       .  A
O551        C564   1.265       .  A
C552        O557   1.269       .  A
C552        C600   1.443       .  S
C553        C594   1.434       .  S
O555        C558   1.268       .  A
O556        C558   1.268       .  A
C558        C591   1.435       .  S
O559        C564   1.267       .  A
O560        C562   1.265       .  A
C561        O563   1.267       .  A
C561        C596   1.430       .  S
C562        C590   1.435       .  S
C564        C598   1.435       .  S
C565        C569   1.543       .  S
C565        C606   1.524       .  S
C566       C1061   1.538       .  S
C566        H573   1.087       .  S
C566        C567   1.361       .  D
C567       C1064   1.533       .  S
C567        C589   1.441       .  S
C568        C570   1.534       .  S
C568        H574   1.112       .  S
C569        H575   1.086       .  S
C569        C570   1.364       .  D
C570        C592   1.441       .  S
C571        C937   1.535       .  S
C571        H576   1.087       .  S
C571        C572   1.362       .  D
C572        C940   1.534       .  S
C572        C593   1.441       .  S
C577        C581   1.539       .  S
C577        C601   1.520       .  S
C578        C949   1.545       .  S
C578        H585   1.086       .  S
C578        C579   1.368       .  D
C579        C828   1.535       .  S
C579        C599   1.449       .  S
C580        C706   1.533       .  S
C580        H586   1.112       .  S
C581        H587   1.086       .  S
C581        C582   1.361       .  D
C582        C597   1.441       .  S
C583       C1073   1.538       .  S
C583        H588   1.087       .  S
C583        C584   1.361       .  D
C584        C952   1.531       .  S
C584        C595   1.437       .  S
C589        C590   1.206       .  T
C591        C592   1.206       .  T
C593        C594   1.205       .  T
C595        C596   1.203       .  T
C597        C598   1.206       .  T
C599        C600   1.211       .  T
C601        C602   1.346       .  D
H603        C973   1.087       .  S
H604        C726   1.081       .  S
C605        C606   1.324   1_554  D
H607        C977   1.207       .  S
H608        C730   1.081       .  S
C609        C610   1.211       .  T
C611        C612   1.207       .  T
C613        C614   1.209       .  T
C615        C616   1.210       .  T
C617        C618   1.209       .  T
C619        C620   1.209       .  T
Fe621       O637   2.073       .  S
Fe621       O627   2.071       .  S
Fe621       O634   2.072       .  S
Fe621       O626   2.075       .  S
Fe621       O632   1.985       .  S
Fe622       O625   2.069       .  S
Fe622       O629   2.076       .  S
Fe622       O633   2.069       .  S
Fe622       O638   2.071       .  S
Fe622       O632   1.988       .  S
Fe623       O641   2.068       .  S
Fe623       O628   2.072       .  S
Fe623       O635   2.076       .  S
Fe623       O624   2.074       .  S
Fe623       O632   1.983       .  S
O624        C631   1.269       .  A
O625        C639   1.268       .  A
O626        C631   1.269       .  A
O627        C630   1.268       .  A
O628        C640   1.269       .  A
O629        C642   1.269       .  A
C630        O635   1.269       .  A
C630        C740   1.443       .  S
C631        C734   1.445       .  S
O633        C636   1.267       .  A
O634        C636   1.268       .  A
C636        C736   1.441       .  S
O637        C642   1.269       .  A
O638        C640   1.269       .  A
C639        O641   1.268       .  A
C639        C744   1.438       .  S
C640        C737   1.441       .  S
C642        C741   1.443       .  S
C643        C649   1.538       .  S
C643        C729   1.522       .  S
C644        H651   1.086       .  S
C644        C645   1.366       .  D
C645        C739   1.449       .  S
C646        C650   1.535       .  S
C646        H652   1.112       .  S
C647        C767   1.545   1_565  S
C647        H653   1.086       .  S
C647        C648   1.368       .  D
C648        C770   1.533   1_565  S
C648        C742   1.448       .  S
C649        H654   1.087       .  S
C649        C650   1.361       .  D
C650        C743   1.444       .  S
C655        C656   1.543       .  S
C655        C726   1.529       .  S
C656        H663   1.086       .  S
C656        C657   1.366       .  D
C657        C658   1.534       .  S
C657        C738   1.448       .  S
C658        H664   1.112       .  S
C659        C779   1.542       .  S
C659        H665   1.086       .  S
C659        C660   1.365       .  D
C660        C782   1.534   1_565  S
C660        C735   1.446       .  S
C661        H666   1.086       .  S
C661        C662   1.366       .  D
C662        C733   1.452       .  S
Fe667       O683   2.068       .  S
Fe667       O673   2.065       .  S
Fe667       O680   2.064       .  S
Fe667       O672   2.066       .  S
Fe667       O678   1.988       .  S
Fe668       O671   2.075       .  S
Fe668       O675   2.069       .  S
Fe668       O679   2.070       .  S
Fe668       O684   2.069       .  S
Fe668       O678   1.984       .  S
Fe669       O687   2.090       .  S
Fe669       O674   2.067       .  S
Fe669       O681   2.067       .  S
Fe669       O670   2.084       .  S
Fe669       O678   1.984       .  S
O670        C677   1.271       .  A
O671        C685   1.269       .  A
O672        C677   1.267       .  A
O673        C676   1.267       .  A
O674        C686   1.267       .  A
O675        C688   1.267       .  A
C676        O681   1.268       .  A
C676        C724   1.435       .  S
C677        C718   1.445       .  S
O679        C682   1.268       .  A
O680        C682   1.267       .  A
C682        C715   1.436       .  S
O683        C688   1.267       .  A
O684        C686   1.267       .  A
C685        O687   1.273       .  A
C685        C720   1.452       .  S
C686        C714   1.439       .  S
C688        C722   1.438       .  S
C689        C693   1.540       .  S
C689        C730   1.521       .  S
C690        C813   1.540       .  S
C690        H697   1.087       .  S
C690        C691   1.362       .  D
C691        C816   1.535       .  S
C691        C713   1.445       .  S
C692        C694   1.533       .  S
C692        H698   1.112       .  S
C693        H699   1.087       .  S
C693        C694   1.362       .  D
C694        C716   1.442       .  S
C695       C1061   1.545       .  S
C695        H700   1.086       .  S
C695        C696   1.368       .  D
C696       C1064   1.534       .  S
C696        C717   1.450       .  S
C701        C705   1.547       .  S
C701        C725   1.527       .  S
C702       C1073   1.538       .  S
C702        H709   1.087       .  S
C702        C703   1.361       .  D
C703        C952   1.532       .  S
C703        C723   1.441       .  S
C704        H710   1.112       .  S
C705        H711   1.083       .  S
C705        C706   1.364       .  D
C706        C721   1.444       .  S
C707        C825   1.549       .  S
C707        H712   1.086       .  S
C707        C708   1.371       .  D
C708       C1076   1.537       .  S
C708        C719   1.457       .  S
C713        C714   1.208       .  T
C715        C716   1.206       .  T
C717        C718   1.211       .  T
C719        C720   1.216       .  T
C721        C722   1.207       .  T
C723        C724   1.206       .  T
C725        C726   1.356       .  D
H727       C1097   1.081       .  S
C729        C730   1.347   1_554  D
H731       C1101   1.087   1_556  S
C733        C734   1.212       .  T
C735        C736   1.209       .  T
C737        C738   1.209       .  T
C739        C740   1.210       .  T
C741        C742   1.210       .  T
C743        C744   1.207       .  T
Fe745       O761   2.073       .  S
Fe745       O751   2.055       .  S
Fe745       O758   2.059       .  S
Fe745       O750   2.073       .  S
Fe745       O756   1.984       .  S
Fe746       O749   2.061       .  S
Fe746       O753   2.080       .  S
Fe746       O757   2.062       .  S
Fe746       O762   2.080       .  S
Fe746       O756   1.985       .  S
Fe747       O765   2.077       .  S
Fe747       O752   2.070       .  S
Fe747       O759   2.063       .  S
Fe747       O748   2.081       .  S
Fe747       O756   1.983       .  S
O748        C755   1.270       .  A
O749        C763   1.265       .  A
O750        C755   1.269       .  A
O751        C754   1.265       .  A
O752        C764   1.269       .  A
O753        C766   1.270       .  A
C754        O759   1.267       .  A
C754        C864   1.429       .  S
C755        C858   1.447       .  S
O757        C760   1.266       .  A
O758        C760   1.265       .  A
C760        C860   1.431       .  S
O761        C766   1.269       .  A
O762        C764   1.271       .  A
C763        O765   1.269       .  A
C763        C868   1.440       .  S
C764        C861   1.444       .  S
C766        C865   1.446       .  S
C767       C1016   1.543   1_545  S
C767        C773   1.542       .  S
C767        C853   1.520       .  S
C768        C891   1.533       .  S
C768        H775   1.087       .  S
C768        C769   1.358       .  D
C769        C894   1.533       .  S
C769        C863   1.435       .  S
C770       C1017   1.535   1_545  S
C770        C774   1.534       .  S
C770        H776   1.112       .  S
C771        H777   1.086       .  S
C771        C772   1.371       .  D
C772        C866   1.451       .  S
C773        H778   1.086       .  S
C773        C774   1.364       .  D
C774        C867   1.446       .  S
C779        C780   1.547   1_565  S
C779       C1033   1.541       .  S
C779        C850   1.521       .  S
C780        H787   1.086       .  S
C780        C781   1.370       .  D
C781        C782   1.534       .  S
C781        C862   1.450       .  S
C782       C1034   1.532   1_545  S
C782        H788   1.112       .  S
C783        H789   1.087       .  S
C783        C784   1.360       .  D
C784        C859   1.437       .  S
C785        C903   1.546       .  S
C785        H790   1.086       .  S
C785        C786   1.369       .  D
C786        C906   1.537       .  S
C786        C857   1.453       .  S
Fe791       O807   2.065       .  S
Fe791       O797   2.081       .  S
Fe791       O804   2.074       .  S
Fe791       O796   2.066       .  S
Fe791       O802   1.983       .  S
Fe792       O795   2.075       .  S
Fe792       O799   2.066       .  S
Fe792       O803   2.077       .  S
Fe792       O808   2.068       .  S
Fe792       O802   1.987       .  S
Fe793       O811   2.091       .  S
Fe793       O798   2.071       .  S
Fe793       O805   2.075       .  S
Fe793       O794   2.090       .  S
Fe793       O802   1.983       .  S
O794        C801   1.273       .  A
O795        C809   1.269       .  A
O796        C801   1.267       .  A
O797        C800   1.270       .  A
O798        C810   1.268       .  A
O799        C812   1.267       .  A
C800        O805   1.269       .  A
C800        C848   1.449       .  S
C801        C842   1.448       .  S
O803        C806   1.269       .  A
O804        C806   1.268       .  A
C806        C839   1.445       .  S
O807        C812   1.267       .  A
O808        C810   1.267       .  A
C809        O811   1.273       .  A
C809        C844   1.451       .  S
C810        C838   1.439       .  S
C812        C846   1.434       .  S
C813        C817   1.546   1_565  S
C813        C854   1.519       .  S
C814        H821   1.086       .  S
C814        C815   1.364       .  D
C815        C837   1.446       .  S
C816        C818   1.535   1_565  S
C816        H822   1.112       .  S
C817        H823   1.086       .  S
C817        C818   1.369       .  D
C818        C840   1.451       .  S
C819        H824   1.086       .  S
C819        C820   1.371       .  D
C820        C841   1.454       .  S
C825        C829   1.539   1_565  S
C825        C849   1.522   1_565  S
C826        H833   1.086       .  S
C826        C827   1.371       .  D
C827        C847   1.455       .  S
C828        C954   1.534       .  S
C828        H834   1.112       .  S
C829        H835   1.086       .  S
C829        C830   1.362       .  D
C830       C1076   1.534   1_545  S
C830        C845   1.441       .  S
C831        H836   1.086       .  S
C831        C832   1.373       .  D
C832        C843   1.455       .  S
C837        C838   1.208       .  T
C839        C840   1.212       .  T
C841        C842   1.213       .  T
C843        C844   1.215       .  T
C845        C846   1.205       .  T
C847        C848   1.214       .  T
C849        C850   1.346   1_545  D
C850       H1100   1.087       .  S
H852        C974   1.087       .  S
C853        C854   1.346   1_544  D
C854       H1104   1.087       .  S
H856        C978   1.205       .  S
C857        C858   1.213       .  T
C859        C860   1.203       .  T
C861        C862   1.211       .  T
C863        C864   1.202       .  T
C865        C866   1.212       .  T
C867        C868   1.209       .  T
Fe869       O885   2.062       .  S
Fe869       O875   2.070       .  S
Fe869       O882   2.076       .  S
Fe869       O874   2.060       .  S
Fe869       O880   1.985       .  S
Fe870       O873   2.076       .  S
Fe870       O877   2.070       .  S
Fe870       O881   2.079       .  S
Fe870       O886   2.068       .  S
Fe870       O880   1.985       .  S
Fe871       O889   2.067       .  S
Fe871       O876   2.080       .  S
Fe871       O883   2.083       .  S
Fe871       O872   2.067       .  S
Fe871       O880   1.985       .  S
O872        C879   1.268       .  A
O873        C887   1.269       .  A
O874        C879   1.266       .  A
O875        C878   1.268       .  A
O876        C888   1.270       .  A
O877        C890   1.268       .  A
C878        O883   1.270       .  A
C878        C988   1.446       .  S
C879        C982   1.433       .  S
O881        C884   1.269       .  A
O882        C884   1.269       .  A
C884        C984   1.448       .  S
O885        C890   1.266       .  A
O886        C888   1.268       .  A
C887        O889   1.268       .  A
C887        C992   1.441       .  S
C888        C985   1.443       .  S
C890        C989   1.436       .  S
C891        C897   1.544       .  S
C891        C977   1.524       .  S
C892       C1015   1.546       .  S
C892        H899   1.086       .  S
C892        C893   1.369       .  D
C893       C1018   1.536       .  S
C893        C987   1.452       .  S
C894        C898   1.537       .  S
C894        H900   1.112       .  S
C895        H901   1.086       .  S
C895        C896   1.365       .  D
C896        C990   1.442       .  S
C897        H902   1.086       .  S
C897        C898   1.365       .  D
C898        C991   1.447       .  S
C903        C904   1.542       .  S
C903        C974   1.518       .  S
C904        H911   1.086       .  S
C904        C905   1.365       .  D
C905        C906   1.537       .  S
C905        C986   1.449       .  S
C906        H912   1.112       .  S
C907        H913   1.086       .  S
C907        C908   1.369       .  D
C908        C983   1.453       .  S
C909       C1027   1.537       .  S
C909        H914   1.087       .  S
C909        C910   1.361       .  D
C910       C1030   1.533       .  S
C910        C981   1.440       .  S
Fe915       O931   2.062       .  S
Fe915       O921   2.060       .  S
Fe915       O928   2.067       .  S
Fe915       O920   2.064       .  S
Fe915       O926   1.984       .  S
Fe916       O919   2.065       .  S
Fe916       O923   2.065       .  S
Fe916       O927   2.071       .  S
Fe916       O932   2.064       .  S
Fe916       O926   1.982       .  S
Fe917       O935   2.068       .  S
Fe917       O922   2.066       .  S
Fe917       O929   2.061       .  S
Fe917       O918   2.070       .  S
Fe917       O926   1.984       .  S
O918        C925   1.268       .  A
O919        C933   1.267       .  A
O920        C925   1.267       .  A
O921        C924   1.266       .  A
O922        C934   1.268       .  A
O923        C936   1.266       .  A
C924        O929   1.267       .  A
C924        C972   1.430       .  S
C925        C966   1.437       .  S
O927        C930   1.268       .  A
O928        C930   1.267       .  A
C930        C963   1.439       .  S
O931        C936   1.266       .  A
O932        C934   1.267       .  A
C933        O935   1.267       .  A
C933        C968   1.437       .  S
C934        C962   1.433       .  S
C936        C970   1.434       .  S
C937        C941   1.546       .  S
C937        C978   1.525       .  S
C938        H945   1.087       .  S
C938        C939   1.358       .  D
C939        C961   1.440       .  S
C940        C942   1.534       .  S
C940        H946   1.112       .  S
C941        H947   1.086       .  S
C941        C942   1.364       .  D
C942        C964   1.445       .  S
C943        H948   1.086       .  S
C943        C944   1.363       .  D
C944        C965   1.443       .  S
C949        C953   1.538       .  S
C949        C973   1.517       .  S
C950        H957   1.087       .  S
C950        C951   1.359       .  D
C951        C971   1.436       .  S
C952       C1078   1.531       .  S
C952        H958   1.112       .  S
C953        H959   1.086       .  S
C953        C954   1.363       .  D
C954        C969   1.440       .  S
C955        H960   1.086       .  S
C955        C956   1.362       .  D
C956        C967   1.443       .  S
C961        C962   1.205       .  T
C963        C964   1.208       .  T
C965        C966   1.207       .  T
C967        C968   1.207       .  T
C969        C970   1.205       .  T
C971        C972   1.203       .  T
C973        C974   1.347       .  D
H976       C1098   1.081       .  S
C977        C978   1.322   1_554  D
H980       C1102   1.087       .  S
C981        C982   1.205       .  T
C983        C984   1.213       .  T
C985        C986   1.211       .  T
C987        C988   1.212       .  T
C989        C990   1.206       .  T
C991        C992   1.209       .  T
Fe993      O1009   2.061       .  S
Fe993       O999   2.072       .  S
Fe993      O1006   2.074       .  S
Fe993       O998   2.065       .  S
Fe993      O1004   1.982       .  S
Fe994       O997   2.063       .  S
Fe994      O1001   2.065       .  S
Fe994      O1005   2.067       .  S
Fe994      O1010   2.065       .  S
Fe994      O1004   1.982       .  S
Fe995      O1013   2.072       .  S
Fe995      O1000   2.069       .  S
Fe995      O1007   2.074       .  S
Fe995       O996   2.071       .  S
Fe995      O1004   1.978       .  S
O996       C1003   1.268       .  A
O997       C1011   1.267       .  A
O998       C1003   1.267       .  A
O999       C1002   1.268       .  A
O1000      C1012   1.268       .  A
O1001      C1014   1.266       .  A
C1002      O1007   1.269       .  A
C1002      C1112   1.442       .  S
C1003      C1106   1.438       .  S
O1005      C1008   1.268       .  A
O1006      C1008   1.269       .  A
C1008      C1108   1.440       .  S
O1009      C1014   1.266       .  A
O1010      C1012   1.267       .  A
C1011      O1013   1.269       .  A
C1011      C1116   1.437       .  S
C1012      C1109   1.437       .  S
C1014      C1113   1.432       .  S
C1015      C1021   1.537       .  S
C1015      C1101   1.520       .  S
C1016      H1023   1.086       .  S
C1016      C1017   1.366       .  D
C1017      C1111   1.447       .  S
C1018      C1022   1.536       .  S
C1018      H1024   1.112       .  S
C1019      H1025   1.086       .  S
C1019      C1020   1.364       .  D
C1020      C1114   1.438       .  S
C1021      H1026   1.087       .  S
C1021      C1022   1.360       .  D
C1022      C1115   1.443       .  S
C1027      C1028   1.539       .  S
C1027      C1098   1.519       .  S
C1028      H1035   1.086       .  S
C1028      C1029   1.363       .  D
C1029      C1030   1.533       .  S
C1029      C1110   1.443       .  S
C1030      H1036   1.112       .  S
C1031      H1037   1.086       .  S
C1031      C1032   1.366       .  D
C1032      C1107   1.446       .  S
C1033      H1038   1.086       .  S
C1033      C1034   1.362       .  D
C1034      C1105   1.444       .  S
Fe1039     O1055   2.074       .  S
Fe1039     O1045   2.073       .  S
Fe1039     O1052   2.072       .  S
Fe1039     O1044   2.076       .  S
Fe1039     O1050   1.986       .  S
Fe1040     O1043   2.070       .  S
Fe1040     O1047   2.062       .  S
Fe1040     O1051   2.073       .  S
Fe1040     O1056   2.060       .  S
Fe1040     O1050   1.984       .  S
Fe1041     O1059   2.071       .  S
Fe1041     O1046   2.075       .  S
Fe1041     O1053   2.078       .  S
Fe1041     O1042   2.077       .  S
Fe1041     O1050   1.983       .  S
O1042      C1049   1.269       .  A
O1043      C1057   1.268       .  A
O1044      C1049   1.269       .  A
O1045      C1048   1.269       .  A
O1046      C1058   1.269       .  A
O1047      C1060   1.266       .  A
C1048      O1053   1.270       .  A
C1048      C1096   1.445       .  S
C1049      C1090   1.447       .  S
O1051      C1054   1.269       .  A
O1052      C1054   1.268       .  A
C1054      C1087   1.442       .  S
O1055      C1060   1.268       .  A
O1056      C1058   1.266       .  A
C1057      O1059   1.269       .  A
C1057      C1092   1.440       .  S
C1058      C1086   1.437       .  S
C1060      C1094   1.437       .  S
C1061      C1065   1.545       .  S
C1061      C1102   1.520       .  S
C1062      H1069   1.087       .  S
C1062      C1063   1.361       .  D
C1063      C1085   1.444       .  S
C1064      C1066   1.533       .  S
C1064      H1070   1.112       .  S
C1065      H1071   1.086       .  S
C1065      C1066   1.368       .  D
C1066      C1088   1.447       .  S
C1067      H1072   1.086       .  S
C1067      C1068   1.370       .  D
C1068      C1089   1.452       .  S
C1073      C1077   1.551       .  S
C1073      C1097   1.517       .  S
C1074      H1081   1.086       .  S
C1074      C1075   1.368       .  D
C1075      C1095   1.450       .  S
C1076      H1082   1.112       .  S
C1077      H1083   1.083       .  S
C1077      C1078   1.366       .  D
C1078      C1093   1.443       .  S
C1079      H1084   1.087       .  S
C1079      C1080   1.360       .  D
C1080      C1091   1.446       .  S
C1085      C1086   1.207       .  T
C1087      C1088   1.210       .  T
C1089      C1090   1.213       .  T
C1091      C1092   1.209       .  T
C1093      C1094   1.207       .  T
C1095      C1096   1.211       .  T
C1097      C1098   1.346       .  D
C1101      C1102   1.343   1_554  D
C1105      C1106   1.207       .  T
C1107      C1108   1.208       .  T
C1109      C1110   1.207       .  T
C1111      C1112   1.210       .  T
C1113      C1114   1.204       .  T
C1115      C1116   1.207       .  T
