geometry optimzed in LAMMPS
_audit_creation_date              2020-12-01 
_audit_creation_method            'lammps2cif' 
_symmetry_space_group_name_H-M    'P1' 
_symmetry_Int_Tables_number       1 
_symmetry_cell_setting            triclinic 
loop_ 
_symmetry_equiv_pos_as_xyz 
  x,y,z 
_cell_length_a                    41.06368129 
_cell_length_b                    41.05270350587558 
_cell_length_c                    42.84489751075465 
_cell_angle_alpha                 90.01643443571331 
_cell_angle_beta                  89.9636869168109 
_cell_angle_gamma                 119.99803423294887 
loop_ 
_atom_site_label 
_atom_site_type_symbol 
_atom_site_fract_x 
_atom_site_fract_y 
_atom_site_fract_z 
_atom_site_charge 
C1          C  0.49038082  0.72045048  0.10005417     0.79000
N2          N  0.48929779  0.74893064  0.08483564    -0.79300
C3          C  0.48680720  0.77603486  0.10104579     0.81500
N4          N  0.48579381  0.77471703  0.13268799    -0.79200
C5          C  0.48724512  0.74673782  0.14831701     0.81500
N6          N  0.48930715  0.71951294  0.13182084    -0.81000
C7          C  0.48878232  0.71805989  0.33116645     0.79000
N8          N  0.48706017  0.71777656  0.29952892    -0.79300
C9          C  0.48701386  0.74641906  0.28375554     0.81500
N10         N  0.48801788  0.77533637  0.30011809    -0.79200
C11         C  0.48971248  0.77598420  0.33186754     0.81500
N12         N  0.49037014  0.74734551  0.34721545    -0.81000
C13         C  0.22092533  0.77381158  0.33170918     0.79000
N14         N  0.19153665  0.74640654  0.34785661    -0.79300
C15         C  0.16281334  0.71711275  0.33261746     0.81500
N16         N  0.16349058  0.71564892  0.30088904    -0.79200
C17         C  0.19254370  0.74318958  0.28442284     0.81500
N18         N  0.22120883  0.77197415  0.30008595    -0.81000
C19         C  0.21893434  0.77387583  0.10103882     0.79000
N20         N  0.19086774  0.74435837  0.08547330    -0.79300
C21         C  0.16423651  0.71398203  0.10123258     0.81500
N22         N  0.16551766  0.71346210  0.13289665    -0.79200
C23         C  0.19309503  0.74287498  0.14890957     0.81500
N24         N  0.21992302  0.77291505  0.13277820    -0.81000
C25         C  0.16535507  0.45023263  0.10106371     0.79000
N26         N  0.19479576  0.45121599  0.08571133    -0.79300
C27         C  0.22500729  0.45492279  0.10169762     0.81500
N28         N  0.22542495  0.45726418  0.13329184    -0.79200
C29         C  0.19616753  0.45600022  0.14907374     0.81500
N30         N  0.16623851  0.45269355  0.13277698    -0.81000
C31         C  0.16638990  0.45367603  0.33184524     0.79000
N32         N  0.16820873  0.45629414  0.30026062    -0.79300
C33         C  0.19691988  0.45653464  0.28438772     0.81500
N34         N  0.22441695  0.45464610  0.30059636    -0.79200
C35         C  0.22289337  0.45192519  0.33229326     0.81500
N36         N  0.19365745  0.45123120  0.34773425    -0.81000
C37         C  0.75057398  0.24476073  0.33147589     0.79000
N38         N  0.72310659  0.21536351  0.34756846    -0.79300
C39         C  0.69401668  0.18649138  0.33227679     0.81500
N40         N  0.69281374  0.18710969  0.30054060    -0.79200
C41         C  0.72040090  0.21620283  0.28414578     0.81500
N42         N  0.74900509  0.24495233  0.29985252    -0.81000
C43         C  0.75003626  0.24259150  0.10064889     0.79000
N44         N  0.72027751  0.21457365  0.08531557    -0.79300
C45         C  0.69038615  0.18764132  0.10129820     0.81500
N46         N  0.69049691  0.18867901  0.13296561    -0.79200
C47         C  0.72013520  0.21624851  0.14875930     0.81500
N48         N  0.74979371  0.24326735  0.13241573    -0.81000
C49         C  0.69682190  0.51290790  0.10030749     0.79000
N50         N  0.69587167  0.51176011  0.13206181    -0.79300
C51         C  0.72285225  0.50920830  0.14846606     0.81500
N52         N  0.75057310  0.50734302  0.13274836    -0.79200
C53         C  0.75187097  0.50843119  0.10110093     0.81500
N54         N  0.72501877  0.51140894  0.08500714    -0.81000
C55         C  0.69382577  0.50888945  0.33145655     0.79000
N56         N  0.69354197  0.50751344  0.29979810    -0.79300
C57         C  0.72256478  0.50843637  0.28384834     0.81500
N58         N  0.75193322  0.51022988  0.30002215    -0.79200
C59         C  0.75261906  0.51167712  0.33176929     0.81500
N60         N  0.72353241  0.51121526  0.34729393    -0.81000
C61         C  0.42910878  0.18856105  0.33182228     0.79000
N62         N  0.42915200  0.18928336  0.30016602    -0.79300
C63         C  0.42851280  0.21769399  0.28450647     0.81500
N64         N  0.42831526  0.24595405  0.30098890    -0.79200
C65         C  0.42820202  0.24549113  0.33277432     0.81500
N66         N  0.42841923  0.21661002  0.34796591    -0.81000
C67         C  0.42591671  0.18820380  0.10087825     0.79000
N68         N  0.42633573  0.18811387  0.13266330    -0.79300
C69         C  0.42791528  0.21727284  0.14907412     0.81500
N70         N  0.42959012  0.24675739  0.13334306    -0.79200
C71         C  0.42921808  0.24720066  0.10168825     0.81500
N72         N  0.42718157  0.21777924  0.08560549    -0.81000
C73         C  0.49071589  0.59994983  0.03043948     0.41200
N74         N  0.48115440  0.54479614  0.02009848     0.00100
C75         C  0.52853148  0.48229744  0.38733948    -0.07700
H76         H  0.44121384  0.53895854  0.36795013     0.05600
C77         C  0.34194286  0.43383642  0.43207539    -0.08100
Co78       Co  0.51979031  0.54246439  0.46179891     0.74200
N79         N  0.47067022  0.53432948  0.40767937    -0.27300
Co80       Co  0.45477510  0.47777475  0.40997276     0.74100
C81         C  0.34322556  0.45225770  0.40246165     0.41300
N82         N  0.38400597  0.44830707  0.00612461    -0.00300
N83         N  0.39840992  0.46227758  0.41332833    -0.00100
N84         N  0.57064614  0.52436999  0.42147481    -0.48100
H85         H  0.52631572  0.62471729  0.48587141     0.05600
N86         N  0.49539331  0.55919371  0.42726351     0.00100
N87         N  0.43924356  0.42143589  0.41345491    -0.00100
C88         C  0.43083811  0.36667524  0.40337211     0.41500
N89         N  0.40889723  0.47270415  0.02589964    -0.26700
C90         C  0.57786280  0.53115758  0.00080139    -0.07600
N91         N  0.47417704  0.56425050  0.04097276    -0.47800
N92         N  0.44688293  0.40229410  0.39278281    -0.48100
C93         C  0.57654879  0.51260700  0.03030435     0.41300
N94         N  0.53611122  0.51758181  0.42733289     0.00100
N95         N  0.44944835  0.43181591  0.02584617    -0.26700
N96         N  0.50182732  0.56561760  0.49656704    -0.27200
N97         N  0.42493069  0.40701225  0.00611179    -0.00200
H98         H  0.47884874  0.42705681  0.06562163     0.05700
H99         H  0.39509701  0.34158307  0.44786303     0.05700
N100        N  0.51110439  0.49313396  0.40769374    -0.27300
N101        N  0.37743256  0.44149923  0.43673936    -0.26900
N102        N  0.52163068  0.50360250  0.02003788     0.00100
C103        C  0.48210286  0.59169966  0.39607764     0.41500
C104        C  0.39117236  0.48277428  0.04663290    -0.08200
N105        N  0.41863098  0.40051298  0.43694845    -0.26900
H106        H  0.31819048  0.41641512  0.44692194     0.05700
N107        N  0.50314777  0.59398314  0.42111179    -0.48100
H108        H  0.40430962  0.50190883  0.06594730     0.05700
C109        C  0.43839283  0.37457898  0.03710953     0.41400
C110        C  0.50914342  0.60106282  0.00089302    -0.07700
Co111      Co  0.46534144  0.48830526  0.02356029     0.73800
N112        N  0.34932856  0.44091409  0.01219108    -0.47800
C113        C  0.56796472  0.50295163  0.39656811     0.41600
N114        N  0.54088501  0.49633797  0.04086136    -0.47800
Co115      Co  0.40042156  0.42353630  0.47160595     0.73900
C116        C  0.41196289  0.36526152  0.43276744    -0.08200
C117        C  0.46056861  0.55215381  0.38710374    -0.07700
N118        N  0.54255003  0.52417307  0.49651988    -0.27300
N119        N  0.37906689  0.46909328  0.39225775    -0.48000
H120        H  0.51513206  0.46277221  0.36831661     0.05600
C121        C  0.45956146  0.41398278  0.04639997    -0.08100
Cl122      Cl  0.46003915  0.48305110  0.46674732    -0.51100
C123        C  0.35175278  0.46177284  0.03740583     0.41400
H124        H  0.60155314  0.54819693  0.48577017     0.05600
N125        N  0.41743321  0.37228076  0.01204364    -0.47800
C126        C  0.04384560  0.59567385  0.40268442     0.41200
N127        N  0.99863966  0.54038052  0.41315830     0.00100
C128        C  0.88942012  0.47898782  0.04642910    -0.07700
H129        H  0.03385716  0.53422661  0.06431789     0.05600
C130        C  0.02683867  0.42929957  0.00125355    -0.08100
Co131      Co  0.95763441  0.53798489  0.47128322     0.74200
N132        N  0.99883840  0.52975664  0.02531506    -0.27300
Co133      Co  0.95798600  0.47331077  0.02336624     0.74100
C134        C  0.04393149  0.44767745  0.03087748     0.41300
N135        N  0.99931607  0.44387694  0.42741179    -0.00300
N136        N  0.99869937  0.45761237  0.02006332    -0.00100
N137        N  0.88926276  0.52057927  0.01179505    -0.48100
H138        H  0.03258298  0.62035106  0.44712509     0.05600
N139        N  0.99898771  0.55460184  0.00569191     0.00100
N140        N  0.91712102  0.41692757  0.02008580    -0.00100
C141        C  0.87119479  0.36206625  0.03055302     0.41500
N142        N  0.99898349  0.46849810  0.40780174    -0.26700
C143        C  0.88884259  0.52764087  0.43161317    -0.07600
N144        N  0.02499353  0.55991096  0.39226365    -0.47800
N145        N  0.89072608  0.39773177  0.04104850    -0.48100
C146        C  0.87205219  0.50965889  0.40178859     0.41300
N147        N  0.91661562  0.51326901  0.00582638     0.00100
N148        N  0.91759487  0.42740954  0.40734483    -0.26700
N149        N  0.99860241  0.56119005  0.43659224    -0.27200
N150        N  0.91712756  0.40251933  0.42710304    -0.00200
H151        H  0.88412065  0.42281872  0.36715458     0.05700
H152        H  0.88139822  0.33689341  0.48593130     0.05700
N153        N  0.91723062  0.48903672  0.02570659    -0.27300
N154        N  0.99891528  0.43686011  0.49664789    -0.26900
N155        N  0.91701366  0.49934963  0.41283716     0.00100
C156        C  0.04585068  0.58684127  0.03599533     0.41500
C157        C  0.02725780  0.47923634  0.38750459    -0.08200
N158        N  0.91666448  0.39596879  0.49653481    -0.26900
H159        H  0.03326658  0.41195804  0.48638880     0.05700
N160        N  0.02669831  0.58924049  0.01129404    -0.48100
H161        H  0.03346722  0.49877936  0.36847895     0.05700
C162        C  0.87185248  0.37017985  0.39555095     0.41400
C163        C  0.02641288  0.59672576  0.43217383    -0.07700
Co164      Co  0.95804559  0.48392778  0.40972622     0.73800
N165        N  0.02691381  0.43686607  0.42155547    -0.47800
C166        C  0.87086910  0.49982445  0.03705328     0.41600
N167        N  0.89113636  0.49289375  0.39154837    -0.47800
Co168      Co  0.95797371  0.41896680  0.46179096     0.73900
C169        C  0.88822795  0.36066904  0.00091578    -0.08200
C170        C  0.02736454  0.54743708  0.04537892    -0.07700
N171        N  0.91660156  0.51989704  0.43636722    -0.27300
N172        N  0.02486625  0.46443473  0.04111974    -0.48000
H173        H  0.88344756  0.45991113  0.06578444     0.05600
C174        C  0.89004986  0.40964436  0.38647296    -0.08100
Cl175      Cl  0.95782307  0.47849354  0.46653105    -0.51100
C176        C  0.04575574  0.45829874  0.39669542     0.41400
H177        H  0.88249921  0.54508878  0.44641891     0.05600
N178        N  0.89011547  0.36776954  0.42086634    -0.47800
C179        C  0.48623923  0.89477778  0.40211705     0.41200
N180        N  0.47628159  0.94009661  0.41285886     0.00100
C181        C  0.52424093  0.05026025  0.04571014    -0.07700
H182        H  0.43756672  0.90707515  0.06590360     0.05600
C183        C  0.33729254  0.91254606  0.00135773    -0.08100
Co184      Co  0.51509526  0.98119625  0.47113945     0.74200
N185        N  0.46614196  0.94061377  0.02557962    -0.27300
Co186      Co  0.45026345  0.98125904  0.02327857     0.74100
C187        C  0.33845354  0.89554083  0.03109520     0.41300
N188        N  0.37947669  0.94032058  0.42711567    -0.00300
N189        N  0.39376713  0.94048701  0.02006264    -0.00100
N190        N  0.56613633  0.05016673  0.01135688    -0.48100
H191        H  0.52201227  0.90574605  0.44661211     0.05600
N192        N  0.49058962  0.94027860  0.00575653     0.00100
N193        N  0.43479430  0.02212468  0.01995887    -0.00100
C194        C  0.42587497  0.06807793  0.03044715     0.41500
N195        N  0.40430366  0.94062945  0.40735044    -0.26700
C196        C  0.57371957  0.04991278  0.43184950    -0.07600
N197        N  0.46948557  0.91384593  0.39181988    -0.47800
N198        N  0.44206660  0.04857830  0.04087284    -0.48100
C199        C  0.57270854  0.06695935  0.40215531     0.41300
N200        N  0.53153867  0.02252559  0.00556750     0.00100
N201        N  0.44552180  0.02209394  0.40752325    -0.26700
N202        N  0.49701609  0.93995252  0.43632171    -0.27200
N203        N  0.42108247  0.02260710  0.42725342    -0.00200
H204        H  0.47569215  0.05651674  0.36807113     0.05700
H205        H  0.39033249  0.05769989  0.48591998     0.05700
N206        N  0.50664920  0.02207159  0.02532876    -0.27300
N207        N  0.37284275  0.94030872  0.49661852    -0.26900
N208        N  0.51741059  0.02181812  0.41278703     0.00100
C209        C  0.47795007  0.89500433  0.03726235     0.41500
C210        C  0.38645299  0.91289661  0.38661340    -0.08200
N211        N  0.41426160  0.02255367  0.49647424    -0.26900
H212        H  0.31352182  0.90624496  0.48656552     0.05700
N213        N  0.49850597  0.91339658  0.01193304    -0.48100
H214        H  0.39957228  0.90682824  0.36732111     0.05700
C215        C  0.43556261  0.06901118  0.39655216     0.41400
C216        C  0.50460629  0.91204067  0.43173560    -0.07700
Co217      Co  0.46088647  0.98112905  0.40955965     0.73800
N218        N  0.34470931  0.91325073  0.42099710    -0.47800
C219        C  0.56360692  0.06888840  0.03633916     0.41600
N220        N  0.53696942  0.04793646  0.39170793    -0.47800
Co221      Co  0.39609047  0.98142148  0.46171614     0.73900
C222        C  0.40731972  0.05093171  0.00088937    -0.08200
C223        C  0.45652994  0.91303956  0.04645639    -0.07700
N224        N  0.53820402  0.02207695  0.43633702    -0.27300
N225        N  0.37431097  0.91448755  0.04125787    -0.48000
H226        H  0.51101333  0.05644694  0.06484619     0.05600
C227        C  0.45624172  0.05032835  0.38717969    -0.08100
Cl228      Cl  0.45553329  0.98116202  0.46641677    -0.51100
C229        C  0.34699395  0.89474318  0.39576605     0.41400
H230        H  0.59736475  0.05624270  0.44680977     0.05600
N231        N  0.41424164  0.05032488  0.42148889    -0.47800
C232        C  0.44635959  0.31466797  0.10003963    -0.14600
C233        C  0.43169302  0.27975274  0.08496084     0.07600
C234        C  0.41962298  0.27635541  0.05383734    -0.14600
C235        C  0.42173678  0.30724284  0.03824394    -0.14600
C236        C  0.43657152  0.34213053  0.05334434     0.07600
C237        C  0.44904733  0.34563496  0.08429603    -0.14600
H238        H  0.45607497  0.31817096  0.12395601     0.11600
H239        H  0.40810653  0.24972842  0.04167819     0.11600
H240        H  0.41197709  0.30391638  0.01434922     0.11600
H241        H  0.46035273  0.37212473  0.09659469     0.11600
C242        C  0.41593589  0.15247238  0.05089156    -0.14600
C243        C  0.42500410  0.15693866  0.08288764     0.07600
C244        C  0.43403629  0.13177163  0.09731180    -0.14600
C245        C  0.43444991  0.10310138  0.08008518    -0.14600
C246        C  0.42524446  0.09856875  0.04820305     0.07600
C247        C  0.41577491  0.12336281  0.03376311    -0.14600
H248        H  0.40882393  0.17140191  0.03907612     0.11600
H249        H  0.44135344  0.13454537  0.12182823     0.11600
H250        H  0.44179132  0.08429113  0.09181723     0.11600
H251        H  0.40876917  0.12060867  0.00918509     0.11600
C252        C  0.42711649  0.18758199  0.23312189    -0.14600
C253        C  0.42813429  0.21760808  0.24984755     0.07600
C254        C  0.42878425  0.24733512  0.23309582    -0.14600
C255        C  0.42868489  0.24716086  0.20045509    -0.14600
C256        C  0.42787289  0.21722351  0.18373430     0.07600
C257        C  0.42696628  0.18738335  0.20049189    -0.14600
H258        H  0.42646709  0.16410819  0.24521177     0.11600
H259        H  0.42949515  0.27085988  0.24516625     0.11600
H260        H  0.42928535  0.27060583  0.18835442     0.11600
H261        H  0.42623534  0.16384355  0.18843222     0.11600
C262        C  0.43987161  0.31129824  0.33684117    -0.14600
C263        C  0.42855884  0.27635977  0.35088400     0.07600
C264        C  0.41825975  0.27138216  0.38262234    -0.14600
C265        C  0.41883339  0.30062700  0.39982497    -0.14600
C266        C  0.43024157  0.33552468  0.38571483     0.07600
C267        C  0.44099653  0.34065666  0.35415408    -0.14600
H268        H  0.44828273  0.31612144  0.31255186     0.11600
H269        H  0.40943666  0.24475836  0.39412690     0.11600
H270        H  0.41063550  0.29599383  0.42415744     0.11600
H271        H  0.44994925  0.36733008  0.34269056     0.11600
C272        C  0.42091144  0.12107914  0.39557754    -0.14600
C273        C  0.43432515  0.09990461  0.38027545     0.07600
C274        C  0.44596072  0.10800172  0.34905079    -0.14600
C275        C  0.44385210  0.13655538  0.33323766    -0.14600
C276        C  0.43066426  0.15797296  0.34852274     0.07600
C277        C  0.41941098  0.15013966  0.37990795    -0.14600
H278        H  0.41184012  0.11532247  0.41968580     0.11600
H279        H  0.45613920  0.09191055  0.33660260     0.11600
H280        H  0.45291458  0.14209253  0.30912050     0.11600
H281        H  0.40905769  0.16617852  0.39224193     0.11600
C282        C  0.63560117  0.52031476  0.39454011    -0.14600
C283        C  0.60006099  0.50379249  0.38035296     0.07600
C284        C  0.59554834  0.48869245  0.35020965    -0.14600
C285        C  0.62610773  0.49060121  0.33432313    -0.14600
C286        C  0.66168438  0.50709979  0.34844341     0.07600
C287        C  0.66611678  0.52167219  0.37881399    -0.14600
H288        H  0.63977021  0.53209816  0.41779161     0.11600
H289        H  0.56857078  0.47590879  0.33857609     0.11600
H290        H  0.62179608  0.47887685  0.31103830     0.11600
H291        H  0.69327779  0.53461681  0.39021817     0.11600
C292        C  0.80849357  0.50247372  0.33497356    -0.14600
C293        C  0.78412018  0.51261443  0.34942948     0.07600
C294        C  0.78945872  0.52258805  0.38121876    -0.14600
C295        C  0.81834857  0.52217760  0.39820095    -0.14600
C296        C  0.84213381  0.51127038  0.38386217     0.07600
C297        C  0.83699612  0.50153010  0.35207689    -0.14600
H298        H  0.80510902  0.49453598  0.31057707     0.11600
H299        H  0.77125729  0.53067655  0.39303417     0.11600
H300        H  0.82160528  0.52975189  0.42266664     0.11600
H301        H  0.85506718  0.49318018  0.34038127     0.11600
C302        C  0.67159872  0.52440765  0.05070147    -0.14600
C303        C  0.66667743  0.51426499  0.08246141     0.07600
C304        C  0.63215811  0.50419749  0.09680313    -0.14600
C305        C  0.60296855  0.50357339  0.07967205    -0.14600
C306        C  0.60784112  0.51360435  0.04797631     0.07600
C307        C  0.64250373  0.52433930  0.03366012    -0.14600
H308        H  0.69793197  0.53239006  0.03900526     0.11600
H309        H  0.62738982  0.49606583  0.12115229     0.11600
H310        H  0.57654278  0.49531411  0.09132060     0.11600
H311        H  0.64695443  0.53210138  0.00923253     0.11600
C312        C  0.69362965  0.50989817  0.19986869    -0.14600
C313        C  0.72229835  0.50844249  0.18310476     0.07600
C314        C  0.75077965  0.50649333  0.19980200    -0.14600
C315        C  0.75075954  0.50626909  0.23241674    -0.14600
C316        C  0.72221857  0.50790852  0.24919843     0.07600
C317        C  0.69355672  0.50957352  0.23251529    -0.14600
H318        H  0.67125281  0.51140201  0.18780578     0.11600
H319        H  0.77331667  0.50529807  0.18770462     0.11600
H320        H  0.77321546  0.50488585  0.24445287     0.11600
H321        H  0.67112409  0.51092065  0.24465316     0.11600
C322        C  0.80264581  0.49179984  0.09981219    -0.14600
C323        C  0.78195852  0.50579005  0.08443717     0.07600
C324        C  0.79038158  0.51723781  0.05314607    -0.14600
C325        C  0.81937754  0.51532140  0.03772814    -0.14600
C326        C  0.83995188  0.50130860  0.05315604     0.07600
C327        C  0.83118003  0.48932916  0.08424789    -0.14600
H328        H  0.79667470  0.48255295  0.12386251     0.11600
H329        H  0.77494409  0.52818144  0.04071232     0.11600
H330        H  0.82560879  0.52463896  0.01370705     0.11600
H331        H  0.84674349  0.47862905  0.09678562     0.11600
C332        C  0.62287441  0.13721484  0.09936178    -0.14600
C333        C  0.65784983  0.15766226  0.08440326     0.07600
C334        C  0.66140213  0.14914227  0.05324149    -0.14600
C335        C  0.63070243  0.12024655  0.03755218    -0.14600
C336        C  0.59581529  0.09986314  0.05258021     0.07600
C337        C  0.59208991  0.10879636  0.08352245    -0.14600
H338        H  0.61920989  0.14328973  0.12328796     0.11600
H339        H  0.68804506  0.16441146  0.04113054     0.11600
H340        H  0.63420100  0.11390903  0.01366249     0.11600
H341        H  0.56559086  0.09341215  0.09577717     0.11600
C342        C  0.81407314  0.29792336  0.03325486    -0.14600
C343        C  0.84074946  0.33090801  0.04827648     0.07600
C344        C  0.83799910  0.33436619  0.08064817    -0.14600
C345        C  0.80905194  0.30539478  0.09776005    -0.14600
C346        C  0.78181833  0.27257257  0.08275374     0.07600
C347        C  0.78469851  0.26913017  0.05028913    -0.14600
H348        H  0.81549229  0.29468723  0.00829091     0.11600
H349        H  0.85837914  0.35949880  0.09280990     0.11600
H350        H  0.80769150  0.30902948  0.12266966     0.11600
H351        H  0.76421144  0.24420261  0.03797845     0.11600
C352        C  0.66804267  0.15005849  0.38197119    -0.14600
C353        C  0.66351669  0.15516149  0.35010284     0.07600
C354        C  0.62918567  0.13053199  0.33557294    -0.14600
C355        C  0.59981053  0.10196273  0.35262135    -0.14600
C356        C  0.60427306  0.09701223  0.38444242     0.07600
C357        C  0.63876389  0.12106530  0.39893052    -0.14600
H358        H  0.69420736  0.16847876  0.39383876     0.11600
H359        H  0.62472067  0.13370145  0.31111713     0.11600
H360        H  0.57354598  0.08366155  0.34083158     0.11600
H361        H  0.64291966  0.11791518  0.42345249     0.11600
C362        C  0.68942309  0.18818845  0.23283056    -0.14600
C363        C  0.71985256  0.21653990  0.24951467     0.07600
C364        C  0.75020539  0.24507084  0.23274371    -0.14600
C365        C  0.75028305  0.24506887  0.20011880    -0.14600
C366        C  0.71995605  0.21660768  0.18341730     0.07600
C367        C  0.68945785  0.18823713  0.20019146    -0.14600
H368        H  0.66556009  0.16583811  0.24495649     0.11600
H369        H  0.77417361  0.26736323  0.24479251     0.11600
H370        H  0.77422162  0.26735525  0.18801800     0.11600
H371        H  0.66556877  0.16586271  0.18813343     0.11600
C372        C  0.80267167  0.31144882  0.33297417    -0.14600
C373        C  0.78166957  0.27663552  0.34807335     0.07600
C374        C  0.79067785  0.27274330  0.37898003    -0.14600
C375        C  0.82033698  0.30310380  0.39438519    -0.14600
C376        C  0.84094225  0.33795836  0.37931844     0.07600
C377        C  0.83184216  0.34186088  0.34851099    -0.14600
H378        H  0.79632686  0.31535571  0.30920604     0.11600
H379        H  0.77505915  0.24617113  0.39113589     0.11600
H380        H  0.82688451  0.29946281  0.41816127     0.11600
H381        H  0.84746159  0.36829410  0.33620382     0.11600
C382        C  0.24710619  0.43706269  0.38081561    -0.14600
C383        C  0.25322677  0.45077387  0.35001265     0.07600
C384        C  0.28891926  0.46435925  0.33661783    -0.14600
C385        C  0.31803100  0.46482616  0.35380832    -0.14600
C386        C  0.31196572  0.45124164  0.38460219     0.07600
C387        C  0.27614608  0.43705802  0.39788346    -0.14600
H388        H  0.21982713  0.42627006  0.39172992     0.11600
H389        H  0.29458562  0.47531226  0.31303124     0.11600
H390        H  0.34536339  0.47586642  0.34293499     0.11600
H391        H  0.27064937  0.42643219  0.42155550     0.11600
C392        C  0.12509161  0.43948341  0.37885797    -0.14600
C393        C  0.13552648  0.45459379  0.34867365     0.07600
C394        C  0.11639990  0.47106102  0.33459619    -0.14600
C395        C  0.08756672  0.47263923  0.35040671    -0.14600
C396        C  0.07686290  0.45727781  0.38044759     0.07600
C397        C  0.09574397  0.44054081  0.39452786    -0.14600
H398        H  0.13932354  0.42650698  0.39019370     0.11600
H399        H  0.12399563  0.48314708  0.31143830     0.11600
H400        H  0.07342818  0.48551521  0.33882567     0.11600
H401        H  0.08797149  0.42849336  0.41768448     0.11600
C402        C  0.22707148  0.45880927  0.20030350    -0.14600
C403        C  0.19692877  0.45762380  0.18368939     0.07900
C404        C  0.16739788  0.45728568  0.20052492    -0.14600
C405        C  0.16773144  0.45753798  0.23315924    -0.14600
C406        C  0.19754924  0.45801598  0.24976755     0.07600
C407        C  0.22735543  0.45895927  0.23292160    -0.14600
H408        H  0.25037507  0.45918216  0.18813991     0.11600
H409        H  0.14381600  0.45650638  0.18852771     0.11600
H410        H  0.14429981  0.45687995  0.24534162     0.11600
H411        H  0.25081061  0.45945911  0.24490340     0.11600
C412        C  0.25429811  0.44560896  0.05363575    -0.14600
C413        C  0.25742986  0.45683988  0.08500515     0.07600
C414        C  0.29195677  0.46994552  0.10044553    -0.14600
C415        C  0.32271912  0.47193096  0.08484232    -0.14600
C416        C  0.31944653  0.46036232  0.05362630     0.07600
C417        C  0.28497975  0.44705565  0.03816648    -0.14600
H418        H  0.22804148  0.43530550  0.04113934     0.11600
H419        H  0.29534099  0.47892552  0.12457567     0.11600
H420        H  0.34887390  0.48201412  0.09742233     0.11600
H421        H  0.28185088  0.43804122  0.01405555     0.11600
C422        C  0.10876918  0.45795886  0.09738102    -0.14600
C423        C  0.13325944  0.44776512  0.08328467     0.07600
C424        C  0.12745902  0.43638744  0.05180397    -0.14600
C425        C  0.09801497  0.43563513  0.03473977    -0.14600
C426        C  0.07421984  0.44677140  0.04873123     0.07600
C427        C  0.07977685  0.45773928  0.08022460    -0.14600
H428        H  0.11248345  0.46693693  0.12152231     0.11600
H429        H  0.14575373  0.42818137  0.04031126     0.11600
H430        H  0.09437364  0.42707405  0.01049945     0.11600
H431        H  0.06170602  0.46627589  0.09166148     0.11600
C432        C  0.12453988  0.68550837  0.05355793    -0.14600
C433        C  0.13444847  0.68144989  0.08412475     0.07600
C434        C  0.11564046  0.64588060  0.09832403    -0.14600
C435        C  0.08741078  0.61503118  0.08239615    -0.14600
C436        C  0.07694947  0.61920235  0.05211603     0.07600
C437        C  0.09579727  0.65468838  0.03778313    -0.14600
H438        H  0.13856528  0.71261856  0.04203860     0.11600
H439        H  0.12287300  0.64180840  0.12174061     0.11600
H440        H  0.07335586  0.58810118  0.09413706     0.11600
H441        H  0.08830933  0.65859749  0.01441028     0.11600
C442        C  0.24370614  0.81156908  0.05171993    -0.14600
C443        C  0.24874756  0.80613625  0.08341425     0.07600
C444        C  0.28306055  0.83111775  0.09780331    -0.14600
C445        C  0.31199627  0.86017813  0.08071367    -0.14600
C446        C  0.30710380  0.86531275  0.04899408     0.07600
C447        C  0.27251317  0.84105541  0.03473877    -0.14600
H448        H  0.21752655  0.79292285  0.03996799     0.11600
H449        H  0.28792004  0.82772791  0.12211987     0.11600
H450        H  0.33832345  0.87862166  0.09236095     0.11600
H451        H  0.26797736  0.84433644  0.01032955     0.11600
C452        C  0.10943225  0.65102781  0.33680852    -0.14600
C453        C  0.13176448  0.68649558  0.35050805     0.07600
C454        C  0.12475074  0.69206315  0.38164941    -0.14600
C455        C  0.09593748  0.66271415  0.39869057    -0.14600
C456        C  0.07401583  0.62716835  0.38501637     0.07600
C457        C  0.08106228  0.62162728  0.35395270    -0.14600
H458        H  0.11428243  0.64576148  0.31296444     0.11600
H459        H  0.14145807  0.71914034  0.39282047     0.11600
H460        H  0.09117672  0.66775465  0.42261313     0.11600
H461        H  0.06453832  0.59450807  0.34279694     0.11600
C462        C  0.22337959  0.77089371  0.23301294    -0.14600
C463        C  0.19304589  0.74230352  0.24975755     0.07600
C464        C  0.16311244  0.71342577  0.23299436    -0.14600
C465        C  0.16334143  0.71339055  0.20032471    -0.14600
C466        C  0.19346010  0.74228779  0.18359575     0.07600
C467        C  0.22355923  0.77091007  0.20037919    -0.14600
H468        H  0.24700517  0.79355564  0.24509006     0.11600
H469        H  0.13930307  0.69095573  0.24507618     0.11600
H470        H  0.13963703  0.69087650  0.18820021     0.11600
H471        H  0.24728187  0.79350985  0.18832318     0.11600
C472        C  0.24891988  0.81460404  0.37892993    -0.14600
C473        C  0.25291973  0.80486867  0.34828208     0.07600
C474        C  0.28804067  0.82494009  0.33348065    -0.14600
C475        C  0.31862997  0.85392004  0.34903902    -0.14600
C476        C  0.31462785  0.86381733  0.37957084     0.07600
C477        C  0.27947003  0.84409114  0.39434582    -0.14600
H478        H  0.22212250  0.79968495  0.39086284     0.11600
H479        H  0.29204868  0.81797053  0.30994015     0.11600
H480        H  0.34528339  0.86877836  0.33693896     0.11600
H481        H  0.27570518  0.85122719  0.41789836     0.11600
C482        C  0.50417159  0.69086542  0.37743406    -0.14600
C483        C  0.48756909  0.68604742  0.34787872     0.07600
C484        C  0.46923608  0.65009089  0.33436808    -0.14600
C485        C  0.46714398  0.61942293  0.35020126    -0.14600
C486        C  0.48387937  0.62416534  0.37967092     0.07600
C487        C  0.50263174  0.66020691  0.39308847    -0.14600
H488        H  0.51864493  0.71837317  0.38827445     0.11600
H489        H  0.45599067  0.64554122  0.31169764     0.11600
H490        H  0.45265978  0.59210504  0.33912151     0.11600
H491        H  0.51584733  0.66463163  0.41575637     0.11600
C492        C  0.47651916  0.82925071  0.33596832    -0.14600
C493        C  0.48971516  0.80695900  0.34969890     0.07600
C494        C  0.50202125  0.81394785  0.38089862    -0.14600
C495        C  0.50122798  0.84264836  0.39794846    -0.14600
C496        C  0.48761439  0.86458861  0.38428739     0.07600
C497        C  0.47521854  0.85754596  0.35315011    -0.14600
H498        H  0.46659859  0.82443885  0.31207536     0.11600
H499        H  0.51242762  0.79731227  0.39213074     0.11600
H500        H  0.51087875  0.84733233  0.42189977     0.11600
H501        H  0.46461137  0.87404044  0.34197197     0.11600
C502        C  0.48256786  0.62698653  0.07987544    -0.14600
C503        C  0.49158835  0.63133152  0.04797143     0.07600
C504        C  0.50095589  0.66546263  0.03327717    -0.14600
C505        C  0.50067504  0.69453231  0.05016780    -0.14600
C506        C  0.49160568  0.69016765  0.08216721     0.07600
C507        C  0.48286077  0.65615796  0.09684425    -0.14600
H508        H  0.47537791  0.60098571  0.09181443     0.11600
H509        H  0.50787478  0.66947377  0.00867121     0.11600
H510        H  0.50761345  0.72042887  0.03817198     0.11600
H511        H  0.47561440  0.65178295  0.12138493     0.11600
C512        C  0.49715290  0.81573183  0.05361377    -0.14600
C513        C  0.48452903  0.80640346  0.08455341     0.07600
C514        C  0.46960866  0.82639005  0.09975130    -0.14600
C515        C  0.46710642  0.85494462  0.08426786    -0.14600
C516        C  0.47998043  0.86443594  0.05344711     0.07600
C517        C  0.49521043  0.84475941  0.03829057    -0.14600
H518        H  0.50892830  0.80090447  0.04138067     0.11600
H519        H  0.45951329  0.81973460  0.12355410     0.11600
H520        H  0.45551484  0.86983889  0.09662193     0.11600
H521        H  0.50533293  0.85161429  0.01450709     0.11600
C522        C  0.48591651  0.71640601  0.19964185    -0.14600
C523        C  0.48664584  0.74622794  0.18296636     0.07600
C524        C  0.48701392  0.77588255  0.19976256    -0.14600
C525        C  0.48686385  0.77583765  0.23238685    -0.14600
C526        C  0.48630339  0.74612146  0.24908632     0.07600
C527        C  0.48570039  0.71632878  0.23229326    -0.14600
H528        H  0.48555472  0.69308758  0.18750263     0.11600
H529        H  0.48762731  0.79937373  0.18773283     0.11600
H530        H  0.48737527  0.79924530  0.24449130     0.11600
H531        H  0.48525072  0.69292973  0.24434637     0.11600
C532        C  0.49038078  0.72045042  0.60005415     0.79000
N533        N  0.48929774  0.74893057  0.58483561    -0.79300
C534        C  0.48680712  0.77603478  0.60104576     0.81500
N535        N  0.48579378  0.77471698  0.63268795    -0.79200
C536        C  0.48724515  0.74673783  0.64831697     0.81500
N537        N  0.48930715  0.71951291  0.63182082    -0.81000
C538        C  0.48878239  0.71805998  0.83116638     0.79000
N539        N  0.48706030  0.71777671  0.79952885    -0.79300
C540        C  0.48701402  0.74641921  0.78375549     0.81500
N541        N  0.48801796  0.77533649  0.80011807    -0.79200
C542        C  0.48971248  0.77598425  0.83186754     0.81500
N543        N  0.49037018  0.74734557  0.84721542    -0.81000
C544        C  0.22092539  0.77381154  0.83170920     0.79000
N545        N  0.19153670  0.74640649  0.84785664    -0.79300
C546        C  0.16281334  0.71711274  0.83261748     0.81500
N547        N  0.16349054  0.71564896  0.80088908    -0.79200
C548        C  0.19254374  0.74318958  0.78442289     0.81500
N549        N  0.22120889  0.77197410  0.80008601    -0.81000
C550        C  0.21893438  0.77387577  0.60103891     0.79000
N551        N  0.19086778  0.74435831  0.58547342    -0.79300
C552        C  0.16423656  0.71398198  0.60123268     0.81500
N553        N  0.16551767  0.71346204  0.63289677    -0.79200
C554        C  0.19309504  0.74287497  0.64890969     0.81500
N555        N  0.21992305  0.77291502  0.63277831    -0.81000
C556        C  0.16535518  0.45023283  0.60106372     0.79000
N557        N  0.19479587  0.45121618  0.58571137    -0.79300
C558        C  0.22500741  0.45492299  0.60169766     0.81500
N559        N  0.22542507  0.45726439  0.63329189    -0.79200
C560        C  0.19616761  0.45600042  0.64907375     0.81500
N561        N  0.16623860  0.45269374  0.63277699    -0.81000
C562        C  0.16638992  0.45367593  0.83184530     0.79000
N563        N  0.16820872  0.45629405  0.80026069    -0.79300
C564        C  0.19691986  0.45653455  0.78438775     0.81500
N565        N  0.22441695  0.45464601  0.80059640    -0.79200
C566        C  0.22289338  0.45192510  0.83229329     0.81500
N567        N  0.19365747  0.45123111  0.84773430    -0.81000
C568        C  0.75057385  0.24476083  0.83147586     0.79000
N569        N  0.72310645  0.21536364  0.84756845    -0.79300
C570        C  0.69401658  0.18649146  0.83227680     0.81500
N571        N  0.69281362  0.18710971  0.80054061    -0.79200
C572        C  0.72040076  0.21620286  0.78414576     0.81500
N573        N  0.74900495  0.24495236  0.79985248    -0.81000
C574        C  0.75003621  0.24259163  0.60064892     0.79000
N575        N  0.72027753  0.21457372  0.58531555    -0.79300
C576        C  0.69038617  0.18764133  0.60129817     0.81500
N577        N  0.69049690  0.18867903  0.63296555    -0.79200
C578        C  0.72013516  0.21624847  0.64875928     0.81500
N579        N  0.74979367  0.24326738  0.63241574    -0.81000
C580        C  0.69682195  0.51290794  0.60030743     0.79000
N581        N  0.69587170  0.51176018  0.63206175    -0.79300
C582        C  0.72285227  0.50920834  0.64846604     0.81500
N583        N  0.75057318  0.50734315  0.63274836    -0.79200
C584        C  0.75187113  0.50843141  0.60110094     0.81500
N585        N  0.72501889  0.51140908  0.58500712    -0.81000
C586        C  0.69382588  0.50888959  0.83145655     0.79000
N587        N  0.69354206  0.50751360  0.79979809    -0.79300
C588        C  0.72256477  0.50843634  0.78384830     0.81500
N589        N  0.75193320  0.51022977  0.80002207    -0.79200
C590        C  0.75261907  0.51167702  0.83176922     0.81500
N591        N  0.72353246  0.51121523  0.84729388    -0.81000
C592        C  0.42910878  0.18856109  0.83182229     0.79000
N593        N  0.42915195  0.18928334  0.80016603    -0.79300
C594        C  0.42851274  0.21769396  0.78450645     0.81500
N595        N  0.42831518  0.24595402  0.80098886    -0.79200
C596        C  0.42820197  0.24549114  0.83277430     0.81500
N597        N  0.42841927  0.21661008  0.84796589    -0.81000
C598        C  0.42591658  0.18820373  0.60087827     0.79000
N599        N  0.42633581  0.18811390  0.63266330    -0.79300
C600        C  0.42791529  0.21727282  0.64907413     0.81500
N601        N  0.42958995  0.24675731  0.63334309    -0.79200
C602        C  0.42921788  0.24720058  0.60168829     0.81500
N603        N  0.42718134  0.21777914  0.58560552    -0.81000
C604        C  0.49071586  0.59994980  0.53043943     0.41200
N605        N  0.48115440  0.54479613  0.52009841     0.00100
C606        C  0.52853152  0.48229745  0.88733948    -0.07700
H607        H  0.44121378  0.53895861  0.86795011     0.05600
C608        C  0.34194286  0.43383636  0.93207537    -0.08100
Co609      Co  0.51979034  0.54246440  0.96179894     0.74200
N610        N  0.47067022  0.53432948  0.90767935    -0.27300
Co611      Co  0.45477514  0.47777475  0.90997275     0.74100
C612        C  0.34322560  0.45225771  0.90246168     0.41300
N613        N  0.38400595  0.44830702  0.50612462    -0.00300
N614        N  0.39840994  0.46227754  0.91332838    -0.00100
N615        N  0.57064620  0.52437014  0.92147478    -0.48100
H616        H  0.52631575  0.62471740  0.98587149     0.05600
N617        N  0.49539335  0.55919373  0.92726350     0.00100
N618        N  0.43924364  0.42143595  0.91345485    -0.00100
C619        C  0.43083819  0.36667532  0.90337205     0.41500
N620        N  0.40889722  0.47270421  0.52589955    -0.26700
C621        C  0.57786274  0.53115752  0.50080132    -0.07600
N622        N  0.47417693  0.56425047  0.54097267    -0.47800
N623        N  0.44688303  0.40229418  0.89278273    -0.48100
C624        C  0.57654875  0.51260692  0.53030427     0.41300
N625        N  0.53611123  0.51758183  0.92733291     0.00100
N626        N  0.44944828  0.43181589  0.52584622    -0.26700
N627        N  0.50182732  0.56561763  0.99656708    -0.27200
N628        N  0.42493067  0.40701227  0.50611184    -0.00200
H629        H  0.47884867  0.42705666  0.56562161     0.05700
H630        H  0.39509710  0.34158315  0.94786291     0.05700
N631        N  0.51110444  0.49313399  0.90769377    -0.27300
N632        N  0.37743255  0.44149917  0.93673937    -0.26900
N633        N  0.52163065  0.50360243  0.52003781     0.00100
C634        C  0.48210283  0.59169969  0.89607768     0.41500
C635        C  0.39117239  0.48277443  0.54663282    -0.08200
N636        N  0.41863108  0.40051305  0.93694839    -0.26900
H637        H  0.31819043  0.41641508  0.94692192     0.05700
N638        N  0.50314778  0.59398314  0.92111181    -0.48100
H639        H  0.40430966  0.50190898  0.56594711     0.05700
C640        C  0.43839278  0.37457894  0.53710955     0.41400
C641        C  0.50914344  0.60106281  0.50089296    -0.07700
Co642      Co  0.46534144  0.48830529  0.52356025     0.73800
N643        N  0.34932852  0.44091399  0.51219113    -0.47800
C644        C  0.56796478  0.50295177  0.89656810     0.41600
N645        N  0.54088499  0.49633787  0.54086129    -0.47800
Co646      Co  0.40042161  0.42353634  0.97160593     0.73900
C647        C  0.41196297  0.36526160  0.93276736    -0.08200
C648        C  0.46056860  0.55215386  0.88710378    -0.07700
N649        N  0.54255008  0.52417314  0.99651995    -0.27300
N650        N  0.37906695  0.46909338  0.89225782    -0.48000
H651        H  0.51513214  0.46277226  0.86831671     0.05600
C652        C  0.45956143  0.41398276  0.54640008    -0.08100
Cl653      Cl  0.46003920  0.48305107  0.96674738    -0.51100
C654        C  0.35175277  0.46177287  0.53740578     0.41400
H655        H  0.60155317  0.54819690  0.98577021     0.05600
N656        N  0.41743319  0.37228074  0.51204367    -0.47800
C657        C  0.04384564  0.59567389  0.90268450     0.41200
N658        N  0.99863972  0.54038053  0.91315838     0.00100
C659        C  0.88942018  0.47898784  0.54642916    -0.07700
H660        H  0.03385723  0.53422650  0.56431796     0.05600
C661        C  0.02683863  0.42929955  0.50125365    -0.08100
Co662      Co  0.95763435  0.53798490  0.97128317     0.74200
N663        N  0.99883844  0.52975657  0.52531513    -0.27300
Co664      Co  0.95798602  0.47331074  0.52336629     0.74100
C665        C  0.04393137  0.44767736  0.53087761     0.41300
N666        N  0.99931599  0.44387688  0.92741183    -0.00300
N667        N  0.99869933  0.45761234  0.52006335    -0.00100
N668        N  0.88926284  0.52057925  0.51179511    -0.48100
H669        H  0.03258288  0.62035112  0.94712508     0.05600
N670        N  0.99898775  0.55460178  0.50569199     0.00100
N671        N  0.91712108  0.41692759  0.52008590    -0.00100
C672        C  0.87119486  0.36206628  0.53055312     0.41500
N673        N  0.99898348  0.46849811  0.90780180    -0.26700
C674        C  0.88884259  0.52764080  0.93161320    -0.07600
N675        N  0.02499364  0.55991099  0.89226376    -0.47800
N676        N  0.89072616  0.39773179  0.54104861    -0.48100
C677        C  0.87205213  0.50965882  0.90178867     0.41300
N678        N  0.91661570  0.51326900  0.50582645     0.00100
N679        N  0.91759485  0.42740953  0.90734488    -0.26700
N680        N  0.99860237  0.56119009  0.93659226    -0.27200
N681        N  0.91712744  0.40251929  0.92710311    -0.00200
H682        H  0.88412085  0.42281871  0.86715448     0.05700
H683        H  0.88139815  0.33689343  0.98593123     0.05700
N684        N  0.91723067  0.48903669  0.52570669    -0.27300
N685        N  0.99891525  0.43686008  0.99664787    -0.26900
N686        N  0.91701368  0.49934962  0.91283715     0.00100
C687        C  0.04585071  0.58684121  0.53599542     0.41500
C688        C  0.02725776  0.47923629  0.88750467    -0.08200
N689        N  0.91666443  0.39596874  0.99653476    -0.26900
H690        H  0.03326656  0.41195812  0.98638871     0.05700
N691        N  0.02669833  0.58924043  0.51129414    -0.48100
H692        H  0.03346719  0.49877941  0.86847893     0.05700
C693        C  0.87185258  0.37017983  0.89555085     0.41400
C694        C  0.02641285  0.59672583  0.93217388    -0.07700
Co695      Co  0.95804561  0.48392777  0.90972630     0.73800
N696        N  0.02691370  0.43686598  0.92155546    -0.47800
C697        C  0.87086915  0.49982445  0.53705335     0.41600
N698        N  0.89113635  0.49289373  0.89154841    -0.47800
Co699      Co  0.95797362  0.41896674  0.96179099     0.73900
C700        C  0.88822804  0.36066913  0.50091589    -0.08200
C701        C  0.02736459  0.54743700  0.54537897    -0.07700
N702        N  0.91660156  0.51989703  0.93636722    -0.27300
N703        N  0.02486615  0.46443465  0.54111984    -0.48000
H704        H  0.88344758  0.45991106  0.56578463     0.05600
C705        C  0.89004996  0.40964435  0.88647291    -0.08100
Cl706      Cl  0.95782307  0.47849351  0.96653110    -0.51100
C707        C  0.04575567  0.45829867  0.89669542     0.41400
H708        H  0.88249924  0.54508875  0.94641905     0.05600
N709        N  0.89011545  0.36776949  0.92086631    -0.47800
C710        C  0.48623909  0.89477777  0.90211707     0.41200
N711        N  0.47628161  0.94009674  0.91285878     0.00100
C712        C  0.52424084  0.05026020  0.54571007    -0.07700
H713        H  0.43756674  0.90707516  0.56590357     0.05600
C714        C  0.33729256  0.91254598  0.50135767    -0.08100
Co715      Co  0.51509526  0.98119631  0.97113947     0.74200
N716        N  0.46614203  0.94061378  0.52557966    -0.27300
Co717      Co  0.45026345  0.98125897  0.52327853     0.74100
C718        C  0.33845354  0.89554071  0.53109512     0.41300
N719        N  0.37947673  0.94032062  0.92711564    -0.00300
N720        N  0.39376714  0.94048692  0.52006256    -0.00100
N721        N  0.56613629  0.05016663  0.51135691    -0.48100
H722        H  0.52201200  0.90574599  0.94661215     0.05600
N723        N  0.49058963  0.94027855  0.50575655     0.00100
N724        N  0.43479421  0.02212458  0.51995877    -0.00100
C725        C  0.42587497  0.06807790  0.53044705     0.41500
N726        N  0.40430371  0.94062954  0.90735038    -0.26700
C727        C  0.57371949  0.04991280  0.93184957    -0.07600
N728        N  0.46948549  0.91384596  0.89181984    -0.47800
N729        N  0.44206656  0.04857825  0.54087272    -0.48100
C730        C  0.57270848  0.06695941  0.90215541     0.41300
N731        N  0.53153865  0.02252548  0.50556750     0.00100
N732        N  0.44552168  0.02209395  0.90752325    -0.26700
N733        N  0.49701605  0.93995262  0.93632165    -0.27200
N734        N  0.42108243  0.02260714  0.92725347    -0.00200
H735        H  0.47569192  0.05651671  0.86807106     0.05700
H736        H  0.39033251  0.05769994  0.98592002     0.05700
N737        N  0.50664916  0.02207151  0.52532874    -0.27300
N738        N  0.37284275  0.94030877  0.99661858    -0.26900
N739        N  0.51741053  0.02181811  0.91278711     0.00100
C740        C  0.47794998  0.89500420  0.53726234     0.41500
C741        C  0.38645308  0.91289671  0.88661329    -0.08200
N742        N  0.41426169  0.02255375  0.99647431    -0.26900
H743        H  0.31352187  0.90624510  0.98656561     0.05700
N744        N  0.49850593  0.91339649  0.51193305    -0.48100
H745        H  0.39957235  0.90682841  0.86732100     0.05700
C746        C  0.43556259  0.06901124  0.89655223     0.41400
C747        C  0.50460613  0.91204067  0.93173561    -0.07700
Co748      Co  0.46088644  0.98112912  0.90955961     0.73800
N749        N  0.34470937  0.91325080  0.92099701    -0.47800
C750        C  0.56360686  0.06888840  0.53633912     0.41600
N751        N  0.53696935  0.04793647  0.89170804    -0.47800
Co752      Co  0.39609044  0.98142151  0.96171619     0.73900
C753        C  0.40731959  0.05093165  0.50088928    -0.08200
C754        C  0.45652997  0.91303955  0.54645645    -0.07700
N755        N  0.53820399  0.02207694  0.93633709    -0.27300
N756        N  0.37431099  0.91448743  0.54125778    -0.48000
H757        H  0.51101312  0.05644690  0.56484608     0.05600
C758        C  0.45624157  0.05032833  0.88717966    -0.08100
Cl759      Cl  0.45553317  0.98116199  0.96641674    -0.51100
C760        C  0.34699403  0.89474328  0.89576595     0.41400
H761        H  0.59736474  0.05624280  0.94680993     0.05600
N762        N  0.41424166  0.05032499  0.92148899    -0.47800
C763        C  0.44635945  0.31466791  0.60003969    -0.14600
C764        C  0.43169294  0.27975269  0.58496086     0.07600
C765        C  0.41962308  0.27635543  0.55383733    -0.14600
C766        C  0.42173685  0.30724281  0.53824387    -0.14600
C767        C  0.43657157  0.34213050  0.55334430     0.07600
C768        C  0.44904732  0.34563489  0.58429598    -0.14600
H769        H  0.45607463  0.31817086  0.62395605     0.11600
H770        H  0.40810660  0.24972835  0.54167817     0.11600
H771        H  0.41197713  0.30391636  0.51434917     0.11600
H772        H  0.46035275  0.37212473  0.59659463     0.11600
C773        C  0.41593595  0.15247240  0.55089156    -0.14600
C774        C  0.42500399  0.15693858  0.58288766     0.07600
C775        C  0.43403622  0.13177156  0.59731182    -0.14600
C776        C  0.43444981  0.10310129  0.58008514    -0.14600
C777        C  0.42524459  0.09856881  0.54820296     0.07600
C778        C  0.41577521  0.12336299  0.53376301    -0.14600
H779        H  0.40882400  0.17140198  0.53907609     0.11600
H780        H  0.44135335  0.13454528  0.62182816     0.11600
H781        H  0.44179107  0.08429092  0.59181722     0.11600
H782        H  0.40876967  0.12060898  0.50918495     0.11600
C783        C  0.42711656  0.18758200  0.73312185    -0.14600
C784        C  0.42813431  0.21760807  0.74984750     0.07600
C785        C  0.42878413  0.24733503  0.73309576    -0.14600
C786        C  0.42868485  0.24716078  0.70045504    -0.14600
C787        C  0.42787294  0.21722347  0.68373428     0.07600
C788        C  0.42696632  0.18738329  0.70049186    -0.14600
H789        H  0.42646713  0.16410816  0.74521177     0.11600
H790        H  0.42949482  0.27085971  0.74516617     0.11600
H791        H  0.42928526  0.27060570  0.68835432     0.11600
H792        H  0.42623536  0.16384353  0.68843219     0.11600
C793        C  0.43987174  0.31129830  0.83684124    -0.14600
C794        C  0.42855884  0.27635978  0.85088400     0.07600
C795        C  0.41825956  0.27138212  0.88262231    -0.14600
C796        C  0.41883318  0.30062696  0.89982492    -0.14600
C797        C  0.43024151  0.33552469  0.88571478     0.07600
C798        C  0.44099659  0.34065669  0.85415409    -0.14600
H799        H  0.44828295  0.31612150  0.81255188     0.11600
H800        H  0.40943633  0.24475826  0.89412685     0.11600
H801        H  0.41063521  0.29599380  0.92415737     0.11600
H802        H  0.44994940  0.36733020  0.84269058     0.11600
C803        C  0.42091134  0.12107915  0.89557760    -0.14600
C804        C  0.43432519  0.09990472  0.88027552     0.07600
C805        C  0.44596069  0.10800175  0.84905083    -0.14600
C806        C  0.44385207  0.13655544  0.83323772    -0.14600
C807        C  0.43066427  0.15797303  0.84852279     0.07600
C808        C  0.41941088  0.15013969  0.87990798    -0.14600
H809        H  0.41183994  0.11532246  0.91968573     0.11600
H810        H  0.45613903  0.09191058  0.83660264     0.11600
H811        H  0.45291449  0.14209254  0.80912054     0.11600
H812        H  0.40905754  0.16617848  0.89224193     0.11600
C813        C  0.63560125  0.52031501  0.89454015    -0.14600
C814        C  0.60006106  0.50379262  0.88035300     0.07600
C815        C  0.59554836  0.48869237  0.85020979    -0.14600
C816        C  0.62610776  0.49060114  0.83432329    -0.14600
C817        C  0.66168448  0.50709992  0.84844346     0.07600
C818        C  0.66611687  0.52167243  0.87881401    -0.14600
H819        H  0.63977026  0.53209848  0.91779155     0.11600
H820        H  0.56857077  0.47590851  0.83857628     0.11600
H821        H  0.62179608  0.47887660  0.81103851     0.11600
H822        H  0.69327793  0.53461720  0.89021817     0.11600
C823        C  0.80849363  0.50247368  0.83497362    -0.14600
C824        C  0.78412018  0.51261434  0.84942944     0.07600
C825        C  0.78945868  0.52258802  0.88121872    -0.14600
C826        C  0.81834863  0.52217778  0.89820093    -0.14600
C827        C  0.84213390  0.51127054  0.88386222     0.07600
C828        C  0.83699626  0.50153023  0.85207694    -0.14600
H829        H  0.80510909  0.49453584  0.81057707     0.11600
H830        H  0.77125717  0.53067641  0.89303405     0.11600
H831        H  0.82160531  0.52975214  0.92266661     0.11600
H832        H  0.85506738  0.49318036  0.84038141     0.11600
C833        C  0.67159874  0.52440773  0.55070140    -0.14600
C834        C  0.66667743  0.51426496  0.58246133     0.07600
C835        C  0.63215811  0.50419741  0.59680305    -0.14600
C836        C  0.60296852  0.50357339  0.57967202    -0.14600
C837        C  0.60784111  0.51360439  0.54797627     0.07600
C838        C  0.64250370  0.52433933  0.53366005    -0.14600
H839        H  0.69793202  0.53239024  0.53900520     0.11600
H840        H  0.62738983  0.49606568  0.62115222     0.11600
H841        H  0.57654284  0.49531413  0.59132052     0.11600
H842        H  0.64695437  0.53210134  0.50923249     0.11600
C843        C  0.69362957  0.50989816  0.69986862    -0.14600
C844        C  0.72229829  0.50844242  0.68310476     0.07600
C845        C  0.75077956  0.50649321  0.69980199    -0.14600
C846        C  0.75075946  0.50626897  0.73241675    -0.14600
C847        C  0.72221849  0.50790849  0.74919838     0.07600
C848        C  0.69355672  0.50957363  0.73251524    -0.14600
H849        H  0.67125289  0.51140202  0.68780570     0.11600
H850        H  0.77331652  0.50529787  0.68770467     0.11600
H851        H  0.77321519  0.50488562  0.74445285     0.11600
H852        H  0.67112416  0.51092093  0.74465310     0.11600
C853        C  0.80264594  0.49180007  0.59981227    -0.14600
C854        C  0.78195867  0.50579027  0.58443719     0.07600
C855        C  0.79038162  0.51723791  0.55314603    -0.14600
C856        C  0.81937756  0.51532137  0.53772812    -0.14600
C857        C  0.83995198  0.50130872  0.55315610     0.07600
C858        C  0.83118019  0.48932938  0.58424799    -0.14600
H859        H  0.79667485  0.48255322  0.62386250     0.11600
H860        H  0.77494420  0.52818144  0.54071228     0.11600
H861        H  0.82560872  0.52463874  0.51370698     0.11600
H862        H  0.84674359  0.47862928  0.59678574     0.11600
C863        C  0.62287435  0.13721486  0.59936172    -0.14600
C864        C  0.65784983  0.15766228  0.58440323     0.07600
C865        C  0.66140206  0.14914229  0.55324147    -0.14600
C866        C  0.63070243  0.12024651  0.53755221    -0.14600
C867        C  0.59581523  0.09986315  0.55258016     0.07600
C868        C  0.59208988  0.10879642  0.58352237    -0.14600
H869        H  0.61920982  0.14328980  0.62328788     0.11600
H870        H  0.68804505  0.16441157  0.54113046     0.11600
H871        H  0.63420105  0.11390889  0.51366249     0.11600
H872        H  0.56559066  0.09341217  0.59577712     0.11600
C873        C  0.81407317  0.29792333  0.53325495    -0.14600
C874        C  0.84074941  0.33090806  0.54827650     0.07600
C875        C  0.83799903  0.33436637  0.58064820    -0.14600
C876        C  0.80905184  0.30539495  0.59776008    -0.14600
C877        C  0.78181827  0.27257272  0.58275379     0.07600
C878        C  0.78469856  0.26913017  0.55028922    -0.14600
H879        H  0.81549233  0.29468705  0.50829095     0.11600
H880        H  0.85837899  0.35949886  0.59280984     0.11600
H881        H  0.80769141  0.30902969  0.62266970     0.11600
H882        H  0.76421151  0.24420249  0.53797862     0.11600
C883        C  0.66804264  0.15005866  0.88197126    -0.14600
C884        C  0.66351671  0.15516153  0.85010287     0.07600
C885        C  0.62918575  0.13053194  0.83557295    -0.14600
C886        C  0.59981057  0.10196278  0.85262140    -0.14600
C887        C  0.60427300  0.09701236  0.88444250     0.07600
C888        C  0.63876387  0.12106543  0.89893063    -0.14600
H889        H  0.69420727  0.16847901  0.89383888     0.11600
H890        H  0.62472081  0.13370133  0.81111712     0.11600
H891        H  0.57354599  0.08366153  0.84083158     0.11600
H892        H  0.64291964  0.11791533  0.92345251     0.11600
C893        C  0.68942308  0.18818838  0.73283055    -0.14600
C894        C  0.71985242  0.21653994  0.74951466     0.07600
C895        C  0.75020523  0.24507098  0.73274370    -0.14600
C896        C  0.75028289  0.24506891  0.70011877    -0.14600
C897        C  0.71995596  0.21660764  0.68341727     0.07600
C898        C  0.68945782  0.18823699  0.70019144    -0.14600
H899        H  0.66556016  0.16583795  0.74495646     0.11600
H900        H  0.77417330  0.26736339  0.74479242     0.11600
H901        H  0.77422144  0.26735535  0.68801796     0.11600
H902        H  0.66556883  0.16586248  0.68813347     0.11600
C903        C  0.80267171  0.31144886  0.83297407    -0.14600
C904        C  0.78166949  0.27663561  0.84807330     0.07600
C905        C  0.79067768  0.27274342  0.87898004    -0.14600
C906        C  0.82033686  0.30310391  0.89438515    -0.14600
C907        C  0.84094232  0.33795838  0.87931834     0.07600
C908        C  0.83184228  0.34186088  0.84851087    -0.14600
H909        H  0.79632692  0.31535570  0.80920591     0.11600
H910        H  0.77505888  0.24617137  0.89113597     0.11600
H911        H  0.82688430  0.29946297  0.91816135     0.11600
H912        H  0.84746182  0.36829409  0.83620366     0.11600
C913        C  0.24710620  0.43706261  0.88081572    -0.14600
C914        C  0.25322675  0.45077374  0.85001272     0.07600
C915        C  0.28891916  0.46435891  0.83661783    -0.14600
C916        C  0.31803092  0.46482582  0.85380828    -0.14600
C917        C  0.31196573  0.45124151  0.88460220     0.07600
C918        C  0.27614613  0.43705798  0.89788355    -0.14600
H919        H  0.21982719  0.42627003  0.89173008     0.11600
H920        H  0.29458547  0.47531180  0.81303116     0.11600
H921        H  0.34536326  0.47586593  0.84293487     0.11600
H922        H  0.27064949  0.42643228  0.92155559     0.11600
C923        C  0.12509162  0.43948335  0.87885807    -0.14600
C924        C  0.13552650  0.45459370  0.84867374     0.07600
C925        C  0.11639993  0.47106091  0.83459627    -0.14600
C926        C  0.08756671  0.47263913  0.85040671    -0.14600
C927        C  0.07686285  0.45727770  0.88044761     0.07600
C928        C  0.09574397  0.44054077  0.89452794    -0.14600
H929        H  0.13932356  0.42650694  0.89019384     0.11600
H930        H  0.12399573  0.48314698  0.81143832     0.11600
H931        H  0.07342820  0.48551507  0.83882564     0.11600
H932        H  0.08797154  0.42849340  0.91768455     0.11600
C933        C  0.22707135  0.45880920  0.70030350    -0.14600
C934        C  0.19692879  0.45762396  0.68368941     0.07900
C935        C  0.16739788  0.45728593  0.70052489    -0.14600
C936        C  0.16773146  0.45753813  0.73315925    -0.14600
C937        C  0.19754916  0.45801594  0.74976756     0.07600
C938        C  0.22735531  0.45895914  0.73292161    -0.14600
H939        H  0.25037489  0.45918192  0.68813990     0.11600
H940        H  0.14381621  0.45650676  0.68852773     0.11600
H941        H  0.14429984  0.45688021  0.74534161     0.11600
H942        H  0.25081035  0.45945883  0.74490337     0.11600
C943        C  0.25429811  0.44560908  0.55363576    -0.14600
C944        C  0.25742996  0.45684008  0.58500515     0.07600
C945        C  0.29195690  0.46994573  0.60044547    -0.14600
C946        C  0.32271921  0.47193111  0.58484221    -0.14600
C947        C  0.31944651  0.46036233  0.55362624     0.07600
C948        C  0.28497967  0.44705561  0.53816646    -0.14600
H949        H  0.22804144  0.43530562  0.54113941     0.11600
H950        H  0.29534121  0.47892577  0.62457560     0.11600
H951        H  0.34887400  0.48201429  0.59742211     0.11600
H952        H  0.28185068  0.43804105  0.51405558     0.11600
C953        C  0.10876912  0.45795882  0.59738110    -0.14600
C954        C  0.13325951  0.44776529  0.58328470     0.07600
C955        C  0.12745910  0.43638767  0.55180399    -0.14600
C956        C  0.09801507  0.43563536  0.53473979    -0.14600
C957        C  0.07421984  0.44677148  0.54873131     0.07600
C958        C  0.07977675  0.45773921  0.58022471    -0.14600
H959        H  0.11248332  0.46693677  0.62152242     0.11600
H960        H  0.14575385  0.42818162  0.54031125     0.11600
H961        H  0.09437378  0.42707435  0.51049948     0.11600
H962        H  0.06170583  0.46627566  0.59166165     0.11600
C963        C  0.12453994  0.68550835  0.55355797    -0.14600
C964        C  0.13444851  0.68144985  0.58412481     0.07600
C965        C  0.11564051  0.64588054  0.59832400    -0.14600
C966        C  0.08741085  0.61503113  0.58239615    -0.14600
C967        C  0.07694951  0.61920231  0.55211607     0.07600
C968        C  0.09579731  0.65468836  0.53778318    -0.14600
H969        H  0.13856535  0.71261852  0.54203866     0.11600
H970        H  0.12287306  0.64180830  0.62174065     0.11600
H971        H  0.07335591  0.58810107  0.59413706     0.11600
H972        H  0.08830935  0.65859747  0.51441032     0.11600
C973        C  0.24370603  0.81156901  0.55171995    -0.14600
C974        C  0.24874756  0.80613619  0.58341428     0.07600
C975        C  0.28306060  0.83111767  0.59780326    -0.14600
C976        C  0.31199630  0.86017801  0.58071359    -0.14600
C977        C  0.30710380  0.86531263  0.54899402     0.07600
C978        C  0.27251312  0.84105534  0.53473877    -0.14600
H979        H  0.21752654  0.79292293  0.53996813     0.11600
H980        H  0.28792015  0.82772783  0.62211982     0.11600
H981        H  0.33832355  0.87862154  0.59236086     0.11600
H982        H  0.26797723  0.84433635  0.51032953     0.11600
C983        C  0.10943191  0.65102789  0.83680840    -0.14600
C984        C  0.13176450  0.68649553  0.85050805     0.07600
C985        C  0.12475111  0.69206299  0.88164954    -0.14600
C986        C  0.09593777  0.66271405  0.89869066    -0.14600
C987        C  0.07401576  0.62716840  0.88501636     0.07600
C988        C  0.08106191  0.62162737  0.85395258    -0.14600
H989        H  0.11428181  0.64576161  0.81296421     0.11600
H990        H  0.14145874  0.71914003  0.89282067     0.11600
H991        H  0.09117727  0.66775450  0.92261334     0.11600
H992        H  0.06453773  0.59450826  0.84279680     0.11600
C993        C  0.22337965  0.77089379  0.73301305    -0.14600
C994        C  0.19304593  0.74230355  0.74975764     0.07600
C995        C  0.16311252  0.71342575  0.73299448    -0.14600
C996        C  0.16334146  0.71339051  0.70032484    -0.14600
C997        C  0.19346008  0.74228780  0.68359587     0.07600
C998        C  0.22355923  0.77091008  0.70037930    -0.14600
H999        H  0.24700513  0.79355570  0.74509009     0.11600
H1000       H  0.13930321  0.69095568  0.74507632     0.11600
H1001       H  0.13963706  0.69087639  0.68820036     0.11600
H1002       H  0.24728187  0.79350986  0.68832325     0.11600
C1003       C  0.24891993  0.81460400  0.87892996    -0.14600
C1004       C  0.25291979  0.80486867  0.84828210     0.07600
C1005       C  0.28804076  0.82494003  0.83348066    -0.14600
C1006       C  0.31863011  0.85391992  0.84903908    -0.14600
C1007       C  0.31462795  0.86381728  0.87957086     0.07600
C1008       C  0.27947012  0.84409113  0.89434584    -0.14600
H1009       H  0.22212264  0.79968497  0.89086283     0.11600
H1010       H  0.29204876  0.81797051  0.80994024     0.11600
H1011       H  0.34528352  0.86877817  0.83693907     0.11600
H1012       H  0.27570525  0.85122726  0.91789837     0.11600
C1013       C  0.50417144  0.69086547  0.87743405    -0.14600
C1014       C  0.48756908  0.68604747  0.84787866     0.07600
C1015       C  0.46923620  0.65009096  0.83436798    -0.14600
C1016       C  0.46714410  0.61942300  0.85020121    -0.14600
C1017       C  0.48387939  0.62416543  0.87967094     0.07600
C1018       C  0.50263162  0.66020700  0.89308850    -0.14600
H1019       H  0.51864473  0.71837329  0.88827444     0.11600
H1020       H  0.45599093  0.64554129  0.81169749     0.11600
H1021       H  0.45266005  0.59210523  0.83912149     0.11600
H1022       H  0.51584710  0.66463177  0.91575644     0.11600
C1023       C  0.47651972  0.82925114  0.83596824    -0.14600
C1024       C  0.48971522  0.80695908  0.84969893     0.07600
C1025       C  0.50202093  0.81394765  0.88089878    -0.14600
C1026       C  0.50122774  0.84264825  0.89794858    -0.14600
C1027       C  0.48761451  0.86458876  0.88428737     0.07600
C1028       C  0.47521910  0.85754641  0.85314997    -0.14600
H1029       H  0.46659943  0.82443951  0.81207516     0.11600
H1030       H  0.51242689  0.79731185  0.89213100     0.11600
H1031       H  0.51087817  0.84733199  0.92189995     0.11600
H1032       H  0.46461222  0.87404106  0.84197172     0.11600
C1033       C  0.48256744  0.62698637  0.57987534    -0.14600
C1034       C  0.49158818  0.63133145  0.54797137     0.07600
C1035       C  0.50095594  0.66546265  0.53327722    -0.14600
C1036       C  0.50067507  0.69453228  0.55016783    -0.14600
C1037       C  0.49160554  0.69016757  0.58216720     0.07600
C1038       C  0.48286045  0.65615782  0.59684418    -0.14600
H1039       H  0.47537731  0.60098546  0.59181429     0.11600
H1040       H  0.50787510  0.66947392  0.50867122     0.11600
H1041       H  0.50761369  0.72042898  0.53817202     0.11600
H1042       H  0.47561400  0.65178280  0.62138489     0.11600
C1043       C  0.49715329  0.81573204  0.55361390    -0.14600
C1044       C  0.48452901  0.80640342  0.58455343     0.07600
C1045       C  0.46960836  0.82638978  0.59975122    -0.14600
C1046       C  0.46710620  0.85494442  0.58426784    -0.14600
C1047       C  0.47998043  0.86443589  0.55344713     0.07600
C1048       C  0.49521077  0.84475960  0.53829071    -0.14600
H1049       H  0.50892888  0.80090484  0.54138092     0.11600
H1050       H  0.45951264  0.81973406  0.62355396     0.11600
H1051       H  0.45551445  0.86983852  0.59662182     0.11600
H1052       H  0.50533347  0.85161460  0.51450728     0.11600
C1053       C  0.48591644  0.71640604  0.69964177    -0.14600
C1054       C  0.48664588  0.74622798  0.68296630     0.07600
C1055       C  0.48701406  0.77588268  0.69976247    -0.14600
C1056       C  0.48686402  0.77583778  0.73238677    -0.14600
C1057       C  0.48630348  0.74612156  0.74908625     0.07600
C1058       C  0.48570037  0.71632880  0.73229319    -0.14600
H1059       H  0.48555452  0.69308747  0.68750250     0.11600
H1060       H  0.48762750  0.79937383  0.68773277     0.11600
H1061       H  0.48737551  0.79924544  0.74449116     0.11600
H1062       H  0.48525064  0.69292975  0.74434625     0.11600
loop_ 
_geom_bond_atom_site_label_1 
_geom_bond_atom_site_label_2 
_geom_bond_distance 
_geom_bond_site_symmetry_2 
_ccdc_geom_bond_type 
C1            N2   1.359       .  A
C1            N6   1.362       .  A
C1          C506   1.482       .  S
N2            C3   1.358       .  A
C3            N4   1.357       .  A
C3          C513   1.476       .  S
N4            C5   1.357       .  A
C5            N6   1.360       .  A
C5          C523   1.485       .  S
C7            N8   1.357       .  A
C7           N12   1.358       .  A
C7          C483   1.476       .  S
N8            C9   1.357       .  A
C9           N10   1.361       .  A
C9          C526   1.486       .  S
N10          C11   1.362       .  A
C11          N12   1.359       .  A
C11         C493   1.483       .  S
C13          N14   1.357       .  A
C13          N18   1.357       .  A
C13         C473   1.477       .  S
N14          C15   1.359       .  A
C15          N16   1.362       .  A
C15         C453   1.480       .  S
N16          C17   1.360       .  A
C17          N18   1.357       .  A
C17         C463   1.486       .  S
C19          N20   1.358       .  A
C19          N24   1.362       .  A
C19         C443   1.484       .  S
N20          C21   1.357       .  A
C21          N22   1.358       .  A
C21         C433   1.478       .  S
N22          C23   1.358       .  A
C23          N24   1.361       .  A
C23         C466   1.487       .  S
C25          N26   1.359       .  A
C25          N30   1.362       .  A
C25         C423   1.482       .  S
N26          C27   1.358       .  A
C27          N28   1.357       .  A
C27         C413   1.478       .  S
N28          C29   1.356       .  A
C29          N30   1.360       .  A
C29         C403   1.484       .  S
C31          N32   1.357       .  A
C31          N36   1.357       .  A
C31         C393   1.474       .  S
N32          C33   1.356       .  A
C33          N34   1.361       .  A
C33         C406   1.484       .  S
N34          C35   1.362       .  A
C35          N36   1.358       .  A
C35         C383   1.480       .  S
C37          N38   1.357       .  A
C37          N42   1.357       .  A
C37         C373   1.476       .  S
N38          C39   1.359       .  A
C39          N40   1.361       .  A
C39         C353   1.481       .  S
N40          C41   1.360       .  A
C41          N42   1.356       .  A
C41         C363   1.484       .  S
C43          N44   1.358       .  A
C43          N48   1.361       .  A
C43         C346   1.483       .  S
N44          C45   1.357       .  A
C45          N46   1.357       .  A
C45         C333   1.477       .  S
N46          C47   1.358       .  A
C47          N48   1.361       .  A
C47         C366   1.485       .  S
C49          N50   1.361       .  A
C49          N54   1.358       .  A
C49         C303   1.480       .  S
N50          C51   1.360       .  A
C51          N52   1.357       .  A
C51         C313   1.484       .  S
N52          C53   1.357       .  A
C53          N54   1.357       .  A
C53         C323   1.477       .  S
C55          N56   1.357       .  A
C55          N60   1.357       .  A
C55         C286   1.476       .  S
N56          C57   1.357       .  A
C57          N58   1.361       .  A
C57         C316   1.485       .  S
N58          C59   1.361       .  A
C59          N60   1.359       .  A
C59         C293   1.483       .  S
C61          N62   1.357       .  A
C61          N66   1.355       .  A
C61         C276   1.474       .  S
N62          C63   1.357       .  A
C63          N64   1.361       .  A
C63         C253   1.485       .  S
N64          C65   1.362       .  A
C65          N66   1.357       .  A
C65         C263   1.480       .  S
C67          N68   1.362       .  A
C67          N72   1.357       .  A
C67         C243   1.481       .  S
N68          C69   1.361       .  A
C69          N70   1.357       .  A
C69         C256   1.485       .  S
N70          C71   1.357       .  A
C71          N72   1.356       .  A
C71         C233   1.475       .  S
C73          N91   1.348       .  A
C73         C110   1.463       .  S
C73         C503   1.476       .  S
N74          N91   1.322       .  A
N74         N627   1.320   1_554  A
N74        Co111   2.078       .  S
C75         N100   1.337       .  A
C75         C113   1.458       .  S
C75         H120   1.081       .  S
H76         C117   1.081       .  S
C77         N101   1.343       .  A
C77          C81   1.465       .  S
C77         H106   1.081       .  S
Co78         N96   2.089       .  S
Co78         N86   2.087       .  S
Co78        N118   2.087       .  S
Co78         N94   2.087       .  S
Co78       Cl122   2.456       .  S
N79         C117   1.338       .  A
N79          N86   1.319       .  A
N79         Co80   2.076       .  S
Co80         N83   2.076       .  S
Co80        N100   2.073       .  S
Co80         N87   2.074       .  S
Co80       Cl122   2.442       .  S
C81         N119   1.348       .  A
C81         C386   1.477       .  S
N82          N89   1.320       .  A
N82         N112   1.325       .  A
N82        Co646   2.088   1_554  S
N83         N101   1.319       .  A
N83         N119   1.322       .  A
N84         C113   1.352       .  A
N84          N94   1.325       .  A
H85         C641   1.081       .  S
N86         N107   1.325       .  A
N87         N105   1.319       .  A
N87          N92   1.321       .  A
C88          N92   1.347       .  A
C88         C116   1.464       .  S
C88         C266   1.475       .  S
N89         C104   1.338       .  A
N89        Co111   2.076       .  S
C90         N649   1.343   1_554  A
C90          C93   1.463       .  S
C90         H655   1.081   1_554  S
C93         N114   1.348       .  A
C93         C306   1.475       .  S
N94         N100   1.319       .  A
N95         C121   1.337       .  A
N95          N97   1.319       .  A
N95        Co111   2.074       .  S
N96         C641   1.343       .  A
N96         N605   1.320       .  A
N97         N125   1.324       .  A
N97        Co646   2.084   1_554  S
H98         C121   1.081       .  S
H99         C116   1.081       .  S
N101       Co115   2.089       .  S
N102        N114   1.322       .  A
N102        N649   1.319   1_554  A
N102       Co111   2.076       .  S
C103        N107   1.351       .  A
C103        C117   1.459       .  S
C103        C486   1.476       .  S
C104        C123   1.458       .  S
C104        H108   1.081       .  S
N105        C116   1.344       .  A
N105       Co115   2.089       .  S
C109        N125   1.350       .  A
C109        C121   1.458       .  S
C109        C236   1.471       .  S
C110        N627   1.343   1_554  A
C110        H616   1.081   1_554  S
Co111      Cl653   2.444   1_554  S
N112        C123   1.351       .  A
C113        C283   1.475       .  S
Co115       N613   2.088       .  S
Co115       N628   2.084       .  S
Co115      Cl122   2.455       .  S
N118        C621   1.343       .  A
N118        N633   1.319       .  A
Cl122      Co642   2.444       .  S
C123        C416   1.473       .  S
H124        C621   1.081       .  S
C126        N144   1.348       .  A
C126        C163   1.463       .  S
C126        C456   1.476       .  S
N127        N144   1.322   1_655  A
N127        N149   1.319       .  A
N127       Co164   2.076       .  S
C128        N153   1.338       .  A
C128        C166   1.458       .  S
C128        H173   1.081       .  S
H129        C170   1.081       .  S
C130        N685   1.344   1_454  A
C130        C134   1.464       .  S
C130        H690   1.081   1_554  S
Co131       N149   2.084       .  S
Co131       N171   2.093       .  S
Co131       N670   2.090       .  S
Co131       N678   2.085       .  S
Co131      Cl175   2.455       .  S
N132        C170   1.337   1_655  A
N132        N139   1.320       .  A
N132       Co133   2.075       .  S
Co133       N136   2.075       .  S
Co133       N153   2.076       .  S
Co133       N140   2.076       .  S
Co133      Cl706   2.445   1_554  S
C134        N172   1.348       .  A
C134        C426   1.477       .  S
N135        N142   1.320       .  A
N135        N165   1.325   1_655  A
N135       Co168   2.088       .  S
N136        N172   1.322   1_655  A
N136        N685   1.319   1_554  A
N137        C166   1.350       .  A
N137        N147   1.324       .  A
H138        C163   1.081       .  S
N139        N160   1.325   1_655  A
N139       Co662   2.090   1_554  S
N140        N145   1.322       .  A
N140        N689   1.320   1_554  A
C141        N145   1.347       .  A
C141        C169   1.464       .  S
C141        C343   1.475       .  S
N142        C157   1.336   1_655  A
N142       Co164   2.073       .  S
C143        N171   1.343       .  A
C143        C146   1.465       .  S
C143        H177   1.081       .  S
C146        N167   1.349       .  A
C146        C296   1.479       .  S
N147        N153   1.320       .  A
N147       Co662   2.085   1_554  S
N148        C174   1.337       .  A
N148        N150   1.320       .  A
N148       Co164   2.073       .  S
N149        C163   1.342   1_655  A
N150        N178   1.325       .  A
N150       Co168   2.085       .  S
H151        C174   1.081       .  S
H152        C700   1.082       .  S
N154        C661   1.344   1_655  A
N154        N667   1.319       .  A
N154       Co168   2.089       .  S
N155        N167   1.323       .  A
N155        N171   1.320       .  A
N155       Co164   2.079       .  S
C156        N160   1.352       .  A
C156        C170   1.458       .  S
C156        C436   1.475       .  S
C157        C176   1.457       .  S
C157        H161   1.081       .  S
N158        C700   1.344       .  A
N158        N671   1.320       .  A
N158       Co168   2.093       .  S
H159        C661   1.081       .  S
C162        N178   1.351       .  A
C162        C174   1.457       .  S
C162        C376   1.472       .  S
Co164      Cl175   2.444       .  S
N165        C176   1.351       .  A
C166        C326   1.472       .  S
Co168      Cl175   2.455       .  S
C169        N689   1.344   1_554  A
C169        H683   1.082   1_554  S
Cl175      Co664   2.445       .  S
C176        C396   1.473       .  S
C179        N197   1.349       .  A
C179        C216   1.465       .  S
C179        C496   1.481       .  S
N180        N197   1.323       .  A
N180        N202   1.320       .  A
N180       Co217   2.079       .  S
C181        N206   1.337       .  A
C181        C219   1.457       .  S
C181        H226   1.081       .  S
H182        C223   1.081       .  S
C183        N738   1.344   1_554  A
C183        C187   1.465       .  S
C183        H743   1.081   1_554  S
Co184       N202   2.094       .  S
Co184       N224   2.085   1_565  S
Co184       N723   2.084       .  S
Co184       N731   2.089   1_565  S
Co184      Cl228   2.454       .  S
N185        C223   1.338       .  A
N185        N192   1.320       .  A
N185       Co186   2.075       .  S
Co186       N189   2.078       .  S
Co186       N206   2.073   1_565  S
Co186       N193   2.075   1_565  S
Co186      Cl759   2.446   1_554  S
C187        N225   1.348       .  A
C187        C446   1.479       .  S
N188        N195   1.320       .  A
N188        N218   1.325       .  A
N188       Co221   2.088       .  S
N189        N225   1.323       .  A
N189        N738   1.320   1_554  A
N190        C219   1.351       .  A
N190        N200   1.325       .  A
H191        C216   1.081       .  S
N192        N213   1.324       .  A
N192       Co715   2.084   1_554  S
N193        N198   1.322       .  A
N193        N742   1.319   1_554  A
C194        N198   1.347       .  A
C194        C222   1.464       .  S
C194        C246   1.476       .  S
N195        C210   1.337       .  A
N195       Co217   2.076       .  S
C196        N224   1.343       .  A
C196        C199   1.463       .  S
C196        H230   1.081       .  S
C199        N220   1.349       .  A
C199        C356   1.476       .  S
N200        N206   1.320       .  A
N200       Co715   2.089   1_544  S
N201        C227   1.337       .  A
N201        N203   1.320       .  A
N201       Co217   2.072   1_545  S
N202        C216   1.344       .  A
N203        N231   1.325       .  A
N203       Co221   2.087   1_545  S
H204        C227   1.081       .  S
H205        C753   1.081       .  S
N207        C714   1.344       .  A
N207        N720   1.320       .  A
N207       Co221   2.094       .  S
N208        N220   1.322       .  A
N208        N224   1.319       .  A
N208       Co217   2.079   1_545  S
C209        N213   1.350       .  A
C209        C223   1.459       .  S
C209        C516   1.472       .  S
C210        C229   1.458       .  S
C210        H214   1.081       .  S
N211        C753   1.344       .  A
N211        N724   1.319       .  A
N211       Co221   2.089   1_545  S
H212        C714   1.081       .  S
C215        N231   1.351       .  A
C215        C227   1.456       .  S
C215        C273   1.471       .  S
Co217      Cl228   2.446       .  S
N218        C229   1.351       .  A
C219        C336   1.473       .  S
Co221      Cl228   2.455       .  S
C222        N742   1.344   1_554  A
C222        H736   1.081   1_554  S
Cl228      Co717   2.446       .  S
C229        C476   1.474       .  S
C232        H238   1.083       .  S
C232        C233   1.404       .  A
C232        C237   1.394       .  A
C233        C234   1.405       .  A
C234        H239   1.083       .  S
C234        C235   1.397       .  A
C235        H240   1.083       .  S
C235        C236   1.403       .  A
C236        C237   1.403       .  A
C237        H241   1.082       .  S
C242        H248   1.083       .  S
C242        C243   1.408       .  A
C242        C247   1.399       .  A
C243        C244   1.404       .  A
C244        H249   1.083       .  S
C244        C245   1.396       .  A
C245        H250   1.083       .  S
C245        C246   1.405       .  A
C246        C247   1.402       .  A
C247        H251   1.083       .  S
C252        H258   1.083       .  S
C252        C253   1.408       .  A
C252        C257   1.398       .  A
C253        C254   1.405       .  A
C254        H259   1.083       .  S
C254        C255   1.399       .  A
C255        H260   1.083       .  S
C255        C256   1.408       .  A
C256        C257   1.404       .  A
C257        H261   1.083       .  S
C262        H268   1.083       .  S
C262        C263   1.403       .  A
C262        C267   1.396       .  A
C263        C264   1.408       .  A
C264        H269   1.083       .  S
C264        C265   1.399       .  A
C265        H270   1.083       .  S
C265        C266   1.402       .  A
C266        C267   1.405       .  A
C267        H271   1.083       .  S
C272        H278   1.083       .  S
C272        C273   1.402       .  A
C272        C277   1.397       .  A
C273        C274   1.403       .  A
C274        H279   1.082       .  S
C274        C275   1.394       .  A
C275        H280   1.083       .  S
C275        C276   1.404       .  A
C276        C277   1.406       .  A
C277        H281   1.083       .  S
C282        H288   1.083       .  S
C282        C283   1.404       .  A
C282        C287   1.399       .  A
C283        C284   1.404       .  A
C284        H289   1.082       .  S
C284        C285   1.395       .  A
C285        H290   1.083       .  S
C285        C286   1.404       .  A
C286        C287   1.405       .  A
C287        H291   1.083       .  S
C292        H298   1.083       .  S
C292        C293   1.405       .  A
C292        C297   1.398       .  A
C293        C294   1.408       .  A
C294        H299   1.083       .  S
C294        C295   1.399       .  A
C295        H300   1.082       .  S
C295        C296   1.403       .  A
C296        C297   1.405       .  A
C297        H301   1.083       .  S
C302        H308   1.083       .  S
C302        C303   1.408       .  A
C302        C307   1.399       .  A
C303        C304   1.404       .  A
C304        H309   1.083       .  S
C304        C305   1.395       .  A
C305        H310   1.083       .  S
C305        C306   1.404       .  A
C306        C307   1.403       .  A
C307        H311   1.083       .  S
C312        H318   1.083       .  S
C312        C313   1.405       .  A
C312        C317   1.399       .  A
C313        C314   1.407       .  A
C314        H319   1.083       .  S
C314        C315   1.397       .  A
C315        H320   1.083       .  S
C315        C316   1.405       .  A
C316        C317   1.408       .  A
C317        H321   1.083       .  S
C322        H328   1.083       .  S
C322        C323   1.405       .  A
C322        C327   1.395       .  A
C323        C324   1.405       .  A
C324        H329   1.083       .  S
C324        C325   1.397       .  A
C325        H330   1.083       .  S
C325        C326   1.403       .  A
C326        C327   1.403       .  A
C327        H331   1.082       .  S
C332        H338   1.083       .  S
C332        C333   1.404       .  A
C332        C337   1.395       .  A
C333        C334   1.406       .  A
C334        H339   1.083       .  S
C334        C335   1.398       .  A
C335        H340   1.083       .  S
C335        C336   1.403       .  A
C336        C337   1.404       .  A
C337        H341   1.082       .  S
C342        H348   1.083       .  S
C342        C343   1.402       .  A
C342        C347   1.399       .  A
C343        C344   1.404       .  A
C344        H349   1.083       .  S
C344        C345   1.397       .  A
C345        H350   1.083       .  S
C345        C346   1.405       .  A
C346        C347   1.409       .  A
C347        H351   1.083       .  S
C352        H358   1.083       .  S
C352        C353   1.408       .  A
C352        C357   1.400       .  A
C353        C354   1.405       .  A
C354        H359   1.083       .  S
C354        C355   1.396       .  A
C355        H360   1.083       .  S
C355        C356   1.404       .  A
C356        C357   1.403       .  A
C357        H361   1.083       .  S
C362        H368   1.083       .  S
C362        C363   1.405       .  A
C362        C367   1.398       .  A
C363        C364   1.408       .  A
C364        H369   1.083       .  S
C364        C365   1.398       .  A
C365        H370   1.083       .  S
C365        C366   1.405       .  A
C366        C367   1.408       .  A
C367        H371   1.083       .  S
C372        H378   1.083       .  S
C372        C373   1.404       .  A
C372        C377   1.393       .  A
C373        C374   1.406       .  A
C374        H379   1.083       .  S
C374        C375   1.398       .  A
C375        H380   1.083       .  S
C375        C376   1.403       .  A
C376        C377   1.403       .  A
C377        H381   1.082       .  S
C382        H388   1.083       .  S
C382        C383   1.407       .  A
C382        C387   1.399       .  A
C383        C384   1.404       .  A
C384        H389   1.083       .  S
C384        C385   1.396       .  A
C385        H390   1.083       .  S
C385        C386   1.405       .  A
C386        C387   1.403       .  A
C387        H391   1.082       .  S
C392        H398   1.083       .  S
C392        C393   1.405       .  A
C392        C397   1.399       .  A
C393        C394   1.403       .  A
C394        H399   1.083       .  S
C394        C395   1.393       .  A
C395        H400   1.082       .  S
C395        C396   1.404       .  A
C396        C397   1.404       .  A
C397        H401   1.083       .  S
C402        H408   1.083       .  S
C402        C403   1.408       .  A
C402        C407   1.398       .  A
C403        C404   1.405       .  A
C404        H409   1.083       .  S
C404        C405   1.398       .  A
C405        H410   1.083       .  S
C405        C406   1.408       .  A
C406        C407   1.404       .  A
C407        H411   1.083       .  S
C412        H418   1.083       .  S
C412        C413   1.406       .  A
C412        C417   1.398       .  A
C413        C414   1.406       .  A
C414        H419   1.083       .  S
C414        C415   1.395       .  A
C415        H420   1.082       .  S
C415        C416   1.403       .  A
C416        C417   1.403       .  A
C417        H421   1.083       .  S
C422        H428   1.083       .  S
C422        C423   1.404       .  A
C422        C427   1.396       .  A
C423        C424   1.408       .  A
C424        H429   1.083       .  S
C424        C425   1.400       .  A
C425        H430   1.083       .  S
C425        C426   1.403       .  A
C426        C427   1.405       .  A
C427        H431   1.083       .  S
C432        H438   1.083       .  S
C432        C433   1.406       .  A
C432        C437   1.399       .  A
C433        C434   1.404       .  A
C434        H439   1.083       .  S
C434        C435   1.395       .  A
C435        H440   1.082       .  S
C435        C436   1.404       .  A
C436        C437   1.404       .  A
C437        H441   1.083       .  S
C442        H448   1.083       .  S
C442        C443   1.408       .  A
C442        C447   1.401       .  A
C443        C444   1.405       .  A
C444        H449   1.083       .  S
C444        C445   1.398       .  A
C445        H450   1.083       .  S
C445        C446   1.405       .  A
C446        C447   1.403       .  A
C447        H451   1.083       .  S
C452        H458   1.083       .  S
C452        C453   1.404       .  A
C452        C457   1.395       .  A
C453        C454   1.407       .  A
C454        H459   1.083       .  S
C454        C455   1.400       .  A
C455        H460   1.082       .  S
C455        C456   1.403       .  A
C456        C457   1.404       .  A
C457        H461   1.083       .  S
C462        H468   1.083       .  S
C462        C463   1.408       .  A
C462        C467   1.398       .  A
C463        C464   1.406       .  A
C464        H469   1.083       .  S
C464        C465   1.400       .  A
C465        H470   1.083       .  S
C465        C466   1.408       .  A
C466        C467   1.405       .  A
C467        H471   1.083       .  S
C472        H478   1.083       .  S
C472        C473   1.406       .  A
C472        C477   1.399       .  A
C473        C474   1.404       .  A
C474        H479   1.083       .  S
C474        C475   1.394       .  A
C475        H480   1.082       .  S
C475        C476   1.403       .  A
C476        C477   1.404       .  A
C477        H481   1.083       .  S
C482        H488   1.083       .  S
C482        C483   1.405       .  A
C482        C487   1.400       .  A
C483        C484   1.403       .  A
C484        H489   1.083       .  S
C484        C485   1.395       .  A
C485        H490   1.082       .  S
C485        C486   1.404       .  A
C486        C487   1.405       .  A
C487        H491   1.083       .  S
C492        H498   1.083       .  S
C492        C493   1.405       .  A
C492        C497   1.398       .  A
C493        C494   1.407       .  A
C494        H499   1.083       .  S
C494        C495   1.400       .  A
C495        H500   1.082       .  S
C495        C496   1.404       .  A
C496        C497   1.406       .  A
C497        H501   1.083       .  S
C502        H508   1.083       .  S
C502        C503   1.404       .  A
C502        C507   1.396       .  A
C503        C504   1.403       .  A
C504        H509   1.083       .  S
C504        C505   1.400       .  A
C505        H510   1.083       .  S
C505        C506   1.408       .  A
C506        C507   1.404       .  A
C507        H511   1.083       .  S
C512        H518   1.083       .  S
C512        C513   1.405       .  A
C512        C517   1.397       .  A
C513        C514   1.405       .  A
C514        H519   1.083       .  S
C514        C515   1.395       .  A
C515        H520   1.082       .  S
C515        C516   1.403       .  A
C516        C517   1.403       .  A
C517        H521   1.083       .  S
C522        H528   1.083       .  S
C522        C523   1.405       .  A
C522        C527   1.399       .  A
C523        C524   1.408       .  A
C524        H529   1.083       .  S
C524        C525   1.398       .  A
C525        H530   1.083       .  S
C525        C526   1.405       .  A
C526        C527   1.408       .  A
C527        H531   1.083       .  S
C532        N533   1.359       .  A
C532        N537   1.362       .  A
C532       C1037   1.482       .  S
N533        C534   1.358       .  A
C534        N535   1.357       .  A
C534       C1044   1.476       .  S
N535        C536   1.357       .  A
C536        N537   1.360       .  A
C536       C1054   1.485       .  S
C538        N539   1.357       .  A
C538        N543   1.358       .  A
C538       C1014   1.476       .  S
N539        C540   1.357       .  A
C540        N541   1.361       .  A
C540       C1057   1.486       .  S
N541        C542   1.362       .  A
C542        N543   1.359       .  A
C542       C1024   1.483       .  S
C544        N545   1.357       .  A
C544        N549   1.357       .  A
C544       C1004   1.477       .  S
N545        C546   1.359       .  A
C546        N547   1.362       .  A
C546        C984   1.480       .  S
N547        C548   1.360       .  A
C548        N549   1.357       .  A
C548        C994   1.486       .  S
C550        N551   1.358       .  A
C550        N555   1.362       .  A
C550        C974   1.484       .  S
N551        C552   1.357       .  A
C552        N553   1.358       .  A
C552        C964   1.478       .  S
N553        C554   1.358       .  A
C554        N555   1.361       .  A
C554        C997   1.487       .  S
C556        N557   1.359       .  A
C556        N561   1.362       .  A
C556        C954   1.482       .  S
N557        C558   1.358       .  A
C558        N559   1.357       .  A
C558        C944   1.478       .  S
N559        C560   1.356       .  A
C560        N561   1.360       .  A
C560        C934   1.484       .  S
C562        N563   1.357       .  A
C562        N567   1.357       .  A
C562        C924   1.474       .  S
N563        C564   1.356       .  A
C564        N565   1.361       .  A
C564        C937   1.484       .  S
N565        C566   1.362       .  A
C566        N567   1.358       .  A
C566        C914   1.480       .  S
C568        N569   1.357       .  A
C568        N573   1.357       .  A
C568        C904   1.476       .  S
N569        C570   1.359       .  A
C570        N571   1.361       .  A
C570        C884   1.481       .  S
N571        C572   1.360       .  A
C572        N573   1.356       .  A
C572        C894   1.484       .  S
C574        N575   1.358       .  A
C574        N579   1.361       .  A
C574        C877   1.483       .  S
N575        C576   1.357       .  A
C576        N577   1.357       .  A
C576        C864   1.477       .  S
N577        C578   1.358       .  A
C578        N579   1.361       .  A
C578        C897   1.485       .  S
C580        N581   1.361       .  A
C580        N585   1.358       .  A
C580        C834   1.480       .  S
N581        C582   1.360       .  A
C582        N583   1.357       .  A
C582        C844   1.484       .  S
N583        C584   1.357       .  A
C584        N585   1.357       .  A
C584        C854   1.477       .  S
C586        N587   1.357       .  A
C586        N591   1.357       .  A
C586        C817   1.476       .  S
N587        C588   1.357       .  A
C588        N589   1.361       .  A
C588        C847   1.485       .  S
N589        C590   1.361       .  A
C590        N591   1.359       .  A
C590        C824   1.483       .  S
C592        N593   1.357       .  A
C592        N597   1.355       .  A
C592        C807   1.474       .  S
N593        C594   1.357       .  A
C594        N595   1.361       .  A
C594        C784   1.485       .  S
N595        C596   1.362       .  A
C596        N597   1.357       .  A
C596        C794   1.480       .  S
C598        N599   1.362       .  A
C598        N603   1.357       .  A
C598        C774   1.481       .  S
N599        C600   1.361       .  A
C600        N601   1.357       .  A
C600        C787   1.485       .  S
N601        C602   1.357       .  A
C602        N603   1.356       .  A
C602        C764   1.475       .  S
C604        N622   1.348       .  A
C604        C641   1.463       .  S
C604       C1034   1.476       .  S
N605        N622   1.322       .  A
N605       Co642   2.078       .  S
C606        N631   1.337       .  A
C606        C644   1.458       .  S
C606        H651   1.081       .  S
H607        C648   1.081       .  S
C608        N632   1.343       .  A
C608        C612   1.465       .  S
C608        H637   1.081       .  S
Co609       N627   2.089       .  S
Co609       N617   2.087       .  S
Co609       N649   2.087       .  S
Co609       N625   2.087       .  S
Co609      Cl653   2.456       .  S
N610        C648   1.338       .  A
N610        N617   1.319       .  A
N610       Co611   2.076       .  S
Co611       N614   2.076       .  S
Co611       N631   2.073       .  S
Co611       N618   2.074       .  S
Co611      Cl653   2.442       .  S
C612        N650   1.348       .  A
C612        C917   1.477       .  S
N613        N620   1.320       .  A
N613        N643   1.325       .  A
N614        N632   1.319       .  A
N614        N650   1.322       .  A
N615        C644   1.352       .  A
N615        N625   1.325       .  A
N617        N638   1.325       .  A
N618        N636   1.319       .  A
N618        N623   1.321       .  A
C619        N623   1.347       .  A
C619        C647   1.464       .  S
C619        C797   1.475       .  S
N620        C635   1.338       .  A
N620       Co642   2.076       .  S
C621        C624   1.463       .  S
C624        N645   1.348       .  A
C624        C837   1.475       .  S
N625        N631   1.319       .  A
N626        C652   1.337       .  A
N626        N628   1.319       .  A
N626       Co642   2.074       .  S
N628        N656   1.324       .  A
H629        C652   1.081       .  S
H630        C647   1.081       .  S
N632       Co646   2.089       .  S
N633        N645   1.322       .  A
N633       Co642   2.076       .  S
C634        N638   1.351       .  A
C634        C648   1.459       .  S
C634       C1017   1.476       .  S
C635        C654   1.458       .  S
C635        H639   1.081       .  S
N636        C647   1.344       .  A
N636       Co646   2.089       .  S
C640        N656   1.350       .  A
C640        C652   1.458       .  S
C640        C767   1.471       .  S
N643        C654   1.351       .  A
C644        C814   1.475       .  S
Co646      Cl653   2.455       .  S
C654        C947   1.473       .  S
C657        N675   1.348       .  A
C657        C694   1.463       .  S
C657        C987   1.476       .  S
N658        N675   1.322   1_655  A
N658        N680   1.319       .  A
N658       Co695   2.076       .  S
C659        N684   1.338       .  A
C659        C697   1.458       .  S
C659        H704   1.081       .  S
H660        C701   1.081       .  S
C661        C665   1.464       .  S
Co662       N680   2.084       .  S
Co662       N702   2.093       .  S
Co662      Cl706   2.455       .  S
N663        C701   1.337   1_655  A
N663        N670   1.320       .  A
N663       Co664   2.075       .  S
Co664       N667   2.075       .  S
Co664       N684   2.076       .  S
Co664       N671   2.076       .  S
C665        N703   1.348       .  A
C665        C957   1.477       .  S
N666        N673   1.320       .  A
N666        N696   1.325   1_655  A
N666       Co699   2.088       .  S
N667        N703   1.322   1_655  A
N668        C697   1.350       .  A
N668        N678   1.324       .  A
H669        C694   1.081       .  S
N670        N691   1.325   1_655  A
N671        N676   1.322       .  A
C672        N676   1.347       .  A
C672        C700   1.464       .  S
C672        C874   1.475       .  S
N673        C688   1.336   1_655  A
N673       Co695   2.073       .  S
C674        N702   1.343       .  A
C674        C677   1.465       .  S
C674        H708   1.081       .  S
C677        N698   1.349       .  A
C677        C827   1.479       .  S
N678        N684   1.320       .  A
N679        C705   1.337       .  A
N679        N681   1.320       .  A
N679       Co695   2.073       .  S
N680        C694   1.342   1_655  A
N681        N709   1.325       .  A
N681       Co699   2.085       .  S
H682        C705   1.081       .  S
N685       Co699   2.089       .  S
N686        N698   1.323       .  A
N686        N702   1.320       .  A
N686       Co695   2.079       .  S
C687        N691   1.352       .  A
C687        C701   1.458       .  S
C687        C967   1.475       .  S
C688        C707   1.457       .  S
C688        H692   1.081       .  S
N689       Co699   2.093       .  S
C693        N709   1.351       .  A
C693        C705   1.457       .  S
C693        C907   1.472       .  S
Co695      Cl706   2.444       .  S
N696        C707   1.351       .  A
C697        C857   1.472       .  S
Co699      Cl706   2.455       .  S
C707        C927   1.473       .  S
C710        N728   1.349       .  A
C710        C747   1.465       .  S
C710       C1027   1.481       .  S
N711        N728   1.323       .  A
N711        N733   1.320       .  A
N711       Co748   2.079       .  S
C712        N737   1.337       .  A
C712        C750   1.457       .  S
C712        H757   1.081       .  S
H713        C754   1.081       .  S
C714        C718   1.465       .  S
Co715       N733   2.094       .  S
Co715       N755   2.085   1_565  S
Co715      Cl759   2.454       .  S
N716        C754   1.338       .  A
N716        N723   1.320       .  A
N716       Co717   2.075       .  S
Co717       N720   2.078       .  S
Co717       N737   2.073   1_565  S
Co717       N724   2.075   1_565  S
C718        N756   1.348       .  A
C718        C977   1.479       .  S
N719        N726   1.320       .  A
N719        N749   1.325       .  A
N719       Co752   2.088       .  S
N720        N756   1.323       .  A
N721        C750   1.351       .  A
N721        N731   1.325       .  A
H722        C747   1.081       .  S
N723        N744   1.324       .  A
N724        N729   1.322       .  A
C725        N729   1.347       .  A
C725        C753   1.464       .  S
C725        C777   1.476       .  S
N726        C741   1.337       .  A
N726       Co748   2.076       .  S
C727        N755   1.343       .  A
C727        C730   1.463       .  S
C727        H761   1.081       .  S
C730        N751   1.349       .  A
C730        C887   1.476       .  S
N731        N737   1.320       .  A
N732        C758   1.337       .  A
N732        N734   1.320       .  A
N732       Co748   2.072   1_545  S
N733        C747   1.344       .  A
N734        N762   1.325       .  A
N734       Co752   2.087   1_545  S
H735        C758   1.081       .  S
N738       Co752   2.094       .  S
N739        N751   1.322       .  A
N739        N755   1.319       .  A
N739       Co748   2.078   1_545  S
C740        N744   1.350       .  A
C740        C754   1.459       .  S
C740       C1047   1.472       .  S
C741        C760   1.458       .  S
C741        H745   1.081       .  S
N742       Co752   2.089   1_545  S
C746        N762   1.351       .  A
C746        C758   1.456       .  S
C746        C804   1.471       .  S
Co748      Cl759   2.446       .  S
N749        C760   1.351       .  A
C750        C867   1.473       .  S
Co752      Cl759   2.455       .  S
C760       C1007   1.474       .  S
C763        H769   1.083       .  S
C763        C764   1.404       .  A
C763        C768   1.394       .  A
C764        C765   1.405       .  A
C765        H770   1.083       .  S
C765        C766   1.397       .  A
C766        H771   1.083       .  S
C766        C767   1.403       .  A
C767        C768   1.403       .  A
C768        H772   1.082       .  S
C773        H779   1.083       .  S
C773        C774   1.408       .  A
C773        C778   1.399       .  A
C774        C775   1.404       .  A
C775        H780   1.083       .  S
C775        C776   1.396       .  A
C776        H781   1.083       .  S
C776        C777   1.405       .  A
C777        C778   1.402       .  A
C778        H782   1.083       .  S
C783        H789   1.083       .  S
C783        C784   1.408       .  A
C783        C788   1.398       .  A
C784        C785   1.405       .  A
C785        H790   1.083       .  S
C785        C786   1.399       .  A
C786        H791   1.083       .  S
C786        C787   1.408       .  A
C787        C788   1.404       .  A
C788        H792   1.083       .  S
C793        H799   1.083       .  S
C793        C794   1.403       .  A
C793        C798   1.396       .  A
C794        C795   1.408       .  A
C795        H800   1.083       .  S
C795        C796   1.399       .  A
C796        H801   1.083       .  S
C796        C797   1.402       .  A
C797        C798   1.405       .  A
C798        H802   1.083       .  S
C803        H809   1.083       .  S
C803        C804   1.402       .  A
C803        C808   1.397       .  A
C804        C805   1.403       .  A
C805        H810   1.082       .  S
C805        C806   1.394       .  A
C806        H811   1.083       .  S
C806        C807   1.404       .  A
C807        C808   1.406       .  A
C808        H812   1.083       .  S
C813        H819   1.083       .  S
C813        C814   1.404       .  A
C813        C818   1.399       .  A
C814        C815   1.404       .  A
C815        H820   1.082       .  S
C815        C816   1.395       .  A
C816        H821   1.083       .  S
C816        C817   1.404       .  A
C817        C818   1.405       .  A
C818        H822   1.083       .  S
C823        H829   1.083       .  S
C823        C824   1.405       .  A
C823        C828   1.398       .  A
C824        C825   1.408       .  A
C825        H830   1.083       .  S
C825        C826   1.399       .  A
C826        H831   1.082       .  S
C826        C827   1.403       .  A
C827        C828   1.405       .  A
C828        H832   1.083       .  S
C833        H839   1.083       .  S
C833        C834   1.408       .  A
C833        C838   1.399       .  A
C834        C835   1.404       .  A
C835        H840   1.083       .  S
C835        C836   1.395       .  A
C836        H841   1.083       .  S
C836        C837   1.404       .  A
C837        C838   1.403       .  A
C838        H842   1.083       .  S
C843        H849   1.083       .  S
C843        C844   1.405       .  A
C843        C848   1.399       .  A
C844        C845   1.407       .  A
C845        H850   1.083       .  S
C845        C846   1.397       .  A
C846        H851   1.083       .  S
C846        C847   1.405       .  A
C847        C848   1.408       .  A
C848        H852   1.083       .  S
C853        H859   1.083       .  S
C853        C854   1.405       .  A
C853        C858   1.395       .  A
C854        C855   1.405       .  A
C855        H860   1.083       .  S
C855        C856   1.397       .  A
C856        H861   1.083       .  S
C856        C857   1.403       .  A
C857        C858   1.403       .  A
C858        H862   1.082       .  S
C863        H869   1.083       .  S
C863        C864   1.404       .  A
C863        C868   1.395       .  A
C864        C865   1.406       .  A
C865        H870   1.083       .  S
C865        C866   1.398       .  A
C866        H871   1.083       .  S
C866        C867   1.403       .  A
C867        C868   1.404       .  A
C868        H872   1.082       .  S
C873        H879   1.083       .  S
C873        C874   1.402       .  A
C873        C878   1.399       .  A
C874        C875   1.404       .  A
C875        H880   1.083       .  S
C875        C876   1.397       .  A
C876        H881   1.083       .  S
C876        C877   1.405       .  A
C877        C878   1.409       .  A
C878        H882   1.083       .  S
C883        H889   1.083       .  S
C883        C884   1.408       .  A
C883        C888   1.400       .  A
C884        C885   1.405       .  A
C885        H890   1.083       .  S
C885        C886   1.396       .  A
C886        H891   1.083       .  S
C886        C887   1.404       .  A
C887        C888   1.403       .  A
C888        H892   1.083       .  S
C893        H899   1.083       .  S
C893        C894   1.405       .  A
C893        C898   1.398       .  A
C894        C895   1.408       .  A
C895        H900   1.083       .  S
C895        C896   1.398       .  A
C896        H901   1.083       .  S
C896        C897   1.405       .  A
C897        C898   1.408       .  A
C898        H902   1.083       .  S
C903        H909   1.083       .  S
C903        C904   1.404       .  A
C903        C908   1.393       .  A
C904        C905   1.406       .  A
C905        H910   1.083       .  S
C905        C906   1.398       .  A
C906        H911   1.083       .  S
C906        C907   1.403       .  A
C907        C908   1.403       .  A
C908        H912   1.082       .  S
C913        H919   1.083       .  S
C913        C914   1.407       .  A
C913        C918   1.399       .  A
C914        C915   1.404       .  A
C915        H920   1.083       .  S
C915        C916   1.396       .  A
C916        H921   1.083       .  S
C916        C917   1.405       .  A
C917        C918   1.403       .  A
C918        H922   1.082       .  S
C923        H929   1.083       .  S
C923        C924   1.405       .  A
C923        C928   1.399       .  A
C924        C925   1.403       .  A
C925        H930   1.083       .  S
C925        C926   1.393       .  A
C926        H931   1.082       .  S
C926        C927   1.404       .  A
C927        C928   1.404       .  A
C928        H932   1.083       .  S
C933        H939   1.083       .  S
C933        C934   1.408       .  A
C933        C938   1.398       .  A
C934        C935   1.405       .  A
C935        H940   1.083       .  S
C935        C936   1.398       .  A
C936        H941   1.083       .  S
C936        C937   1.408       .  A
C937        C938   1.404       .  A
C938        H942   1.083       .  S
C943        H949   1.083       .  S
C943        C944   1.406       .  A
C943        C948   1.398       .  A
C944        C945   1.406       .  A
C945        H950   1.083       .  S
C945        C946   1.395       .  A
C946        H951   1.082       .  S
C946        C947   1.403       .  A
C947        C948   1.403       .  A
C948        H952   1.083       .  S
C953        H959   1.083       .  S
C953        C954   1.404       .  A
C953        C958   1.396       .  A
C954        C955   1.408       .  A
C955        H960   1.083       .  S
C955        C956   1.400       .  A
C956        H961   1.083       .  S
C956        C957   1.403       .  A
C957        C958   1.405       .  A
C958        H962   1.083       .  S
C963        H969   1.083       .  S
C963        C964   1.406       .  A
C963        C968   1.399       .  A
C964        C965   1.404       .  A
C965        H970   1.083       .  S
C965        C966   1.395       .  A
C966        H971   1.082       .  S
C966        C967   1.404       .  A
C967        C968   1.404       .  A
C968        H972   1.083       .  S
C973        H979   1.083       .  S
C973        C974   1.408       .  A
C973        C978   1.401       .  A
C974        C975   1.405       .  A
C975        H980   1.083       .  S
C975        C976   1.398       .  A
C976        H981   1.083       .  S
C976        C977   1.405       .  A
C977        C978   1.403       .  A
C978        H982   1.083       .  S
C983        H989   1.083       .  S
C983        C984   1.404       .  A
C983        C988   1.395       .  A
C984        C985   1.407       .  A
C985        H990   1.083       .  S
C985        C986   1.400       .  A
C986        H991   1.082       .  S
C986        C987   1.403       .  A
C987        C988   1.404       .  A
C988        H992   1.083       .  S
C993        H999   1.083       .  S
C993        C994   1.408       .  A
C993        C998   1.398       .  A
C994        C995   1.406       .  A
C995       H1000   1.083       .  S
C995        C996   1.400       .  A
C996       H1001   1.083       .  S
C996        C997   1.408       .  A
C997        C998   1.405       .  A
C998       H1002   1.083       .  S
C1003      H1009   1.083       .  S
C1003      C1004   1.406       .  A
C1003      C1008   1.399       .  A
C1004      C1005   1.404       .  A
C1005      H1010   1.083       .  S
C1005      C1006   1.394       .  A
C1006      H1011   1.082       .  S
C1006      C1007   1.403       .  A
C1007      C1008   1.404       .  A
C1008      H1012   1.083       .  S
C1013      H1019   1.083       .  S
C1013      C1014   1.405       .  A
C1013      C1018   1.400       .  A
C1014      C1015   1.403       .  A
C1015      H1020   1.083       .  S
C1015      C1016   1.395       .  A
C1016      H1021   1.082       .  S
C1016      C1017   1.404       .  A
C1017      C1018   1.405       .  A
C1018      H1022   1.083       .  S
C1023      H1029   1.083       .  S
C1023      C1024   1.405       .  A
C1023      C1028   1.398       .  A
C1024      C1025   1.407       .  A
C1025      H1030   1.083       .  S
C1025      C1026   1.400       .  A
C1026      H1031   1.082       .  S
C1026      C1027   1.404       .  A
C1027      C1028   1.406       .  A
C1028      H1032   1.083       .  S
C1033      H1039   1.083       .  S
C1033      C1034   1.404       .  A
C1033      C1038   1.396       .  A
C1034      C1035   1.403       .  A
C1035      H1040   1.083       .  S
C1035      C1036   1.400       .  A
C1036      H1041   1.083       .  S
C1036      C1037   1.408       .  A
C1037      C1038   1.404       .  A
C1038      H1042   1.083       .  S
C1043      H1049   1.083       .  S
C1043      C1044   1.405       .  A
C1043      C1048   1.397       .  A
C1044      C1045   1.405       .  A
C1045      H1050   1.083       .  S
C1045      C1046   1.395       .  A
C1046      H1051   1.082       .  S
C1046      C1047   1.403       .  A
C1047      C1048   1.403       .  A
C1048      H1052   1.083       .  S
C1053      H1059   1.083       .  S
C1053      C1054   1.405       .  A
C1053      C1058   1.399       .  A
C1054      C1055   1.408       .  A
C1055      H1060   1.083       .  S
C1055      C1056   1.398       .  A
C1056      H1061   1.083       .  S
C1056      C1057   1.405       .  A
C1057      C1058   1.408       .  A
C1058      H1062   1.083       .  S
