geometry optimzed in LAMMPS
_audit_creation_date              2020-12-01 
_audit_creation_method            'lammps2cif' 
_symmetry_space_group_name_H-M    'P1' 
_symmetry_Int_Tables_number       1 
_symmetry_cell_setting            triclinic 
loop_ 
_symmetry_equiv_pos_as_xyz 
  x,y,z 
_cell_length_a                    52.62054657 
_cell_length_b                    52.67582901101327 
_cell_length_c                    42.510089464517506 
_cell_angle_alpha                 89.87001691023195 
_cell_angle_beta                  89.88344172034813 
_cell_angle_gamma                 120.04766432648411 
loop_ 
_atom_site_label 
_atom_site_type_symbol 
_atom_site_fract_x 
_atom_site_fract_y 
_atom_site_fract_z 
_atom_site_charge 
C1          C  0.24354017  0.37029721  0.15510725     0.03500
C2          C  0.24415795  0.39403820  0.13940261    -0.12600
C3          C  0.24712262  0.39681030  0.10661935     0.01000
C4          C  0.24969765  0.37567327  0.08913104    -0.11100
C5          C  0.24766820  0.35101617  0.10426950     0.03500
C6          C  0.24457343  0.34844125  0.13720062    -0.10600
H7          H  0.24217246  0.41047202  0.15268254     0.09100
H8          H  0.25169619  0.37763034  0.06373995     0.06700
H9          H  0.24362778  0.32968581  0.14887406     0.06500
C10         C  0.24322976  0.37672812  0.38581384     0.03500
C11         C  0.24368565  0.35313435  0.40079350    -0.12600
C12         C  0.24670284  0.35269677  0.43356684     0.01000
C13         C  0.24965352  0.37630394  0.45165889    -0.11100
C14         C  0.24795798  0.39941245  0.43727564     0.03500
C15         C  0.24482328  0.39949006  0.40442977    -0.10600
H16         H  0.24265050  0.33541847  0.38697203     0.09100
H17         H  0.25175834  0.37594821  0.47699057     0.06700
H18         H  0.24371750  0.41745755  0.39336440     0.06500
C19         C  0.09445783  0.37548628  0.38757976     0.03500
C20         C  0.07066063  0.35245398  0.40384204    -0.12600
C21         C  0.06840961  0.35328650  0.43686553     0.01000
C22         C  0.09023011  0.37715667  0.45367219    -0.11100
C23         C  0.11472179  0.39925823  0.43790920     0.03500
C24         C  0.11649494  0.39844862  0.40509996    -0.10600
H25         H  0.05346146  0.33431030  0.39094723     0.09100
H26         H  0.08901424  0.37771632  0.47909708     0.06700
H27         H  0.13544078  0.41587182  0.39321969     0.06500
C28         C  0.09769096  0.36834328  0.15679207     0.03500
C29         C  0.11941174  0.39258064  0.14001550    -0.12600
C30         C  0.11655782  0.39556397  0.10749993     0.01000
C31         C  0.09194199  0.37397703  0.09148137    -0.11100
C32         C  0.07092655  0.34900759  0.10757563     0.03500
C33         C  0.07389548  0.34639461  0.14006342    -0.10600
H34         H  0.13847250  0.40935046  0.15219525     0.09100
H35         H  0.08979567  0.37592838  0.06637138     0.06700
H36         H  0.05695790  0.32753371  0.15248923     0.06500
C37         C  0.09466623  0.22242852  0.15420990     0.03500
C38         C  0.07103110  0.22173435  0.13793485    -0.12600
C39         C  0.06904607  0.21869676  0.10491630     0.01000
C40         C  0.09096704  0.21671299  0.08812521    -0.11100
C41         C  0.11522107  0.21891848  0.10397603     0.03500
C42         C  0.11679186  0.22153343  0.13673037    -0.10600
H43         H  0.05370497  0.22256503  0.15081430     0.09100
H44         H  0.08991587  0.21492214  0.06270342     0.06700
H45         H  0.13560456  0.22291879  0.14861438     0.06500
C46         C  0.09578423  0.22771251  0.38514047     0.03500
C47         C  0.07212813  0.22597955  0.40219676    -0.12600
C48         C  0.06958500  0.22104118  0.43478077     0.01000
C49         C  0.09068170  0.21714845  0.45066387    -0.11100
C50         C  0.11511319  0.21982732  0.43431174     0.03500
C51         C  0.11762638  0.22525092  0.40165156    -0.10600
H52         H  0.05510034  0.22785000  0.39003300     0.09100
H53         H  0.08886413  0.21358644  0.47588195     0.06700
H54         H  0.13661357  0.22747172  0.38922276     0.06500
C55         C  0.35479646  0.10693597  0.38749298     0.03500
C56         C  0.33376709  0.08377385  0.40608762    -0.12600
C57         C  0.33804529  0.08216290  0.43850326     0.01000
C58         C  0.36360135  0.10412823  0.45270281    -0.11100
C59         C  0.38419058  0.12809747  0.43487116     0.03500
C60         C  0.37988446  0.12923513  0.40235836    -0.10600
H61         H  0.31390344  0.06670575  0.39534299     0.09100
H62         H  0.36674917  0.10336155  0.47779545     0.06700
H63         H  0.39649482  0.14730493  0.38867788     0.06500
C64         C  0.35618156  0.11311111  0.15685213     0.03500
C65         C  0.38051933  0.13379547  0.13935996    -0.12600
C66         C  0.38344499  0.12937543  0.10716459     0.01000
C67         C  0.36184038  0.10409125  0.09224125    -0.11100
C68         C  0.33682142  0.08393665  0.10888852     0.03500
C69         C  0.33412481  0.08854781  0.14100803    -0.10600
H70         H  0.39765223  0.15310881  0.15086651     0.09100
H71         H  0.36376858  0.10080930  0.06738520     0.06700
H72         H  0.31468888  0.07283809  0.15360732     0.06500
C73         C  0.35615219  0.25096241  0.15410503     0.03500
C74         C  0.33492997  0.25348693  0.13653374    -0.12600
C75         C  0.33836273  0.25874014  0.10388885     0.01000
C76         C  0.36335148  0.26156584  0.08867447    -0.11100
C77         C  0.38395121  0.25767810  0.10569196     0.03500
C78         C  0.38022145  0.25242938  0.13818699    -0.10600
H79         H  0.31594941  0.25200453  0.14828043     0.09100
H80         H  0.36597827  0.26520975  0.06348356     0.06700
H81         H  0.39622582  0.24941732  0.15106195     0.06500
C82         C  0.36229403  0.25568100  0.38449399     0.03500
C83         C  0.38475349  0.25649484  0.40296571    -0.12600
C84         C  0.38552181  0.26073383  0.43561104     0.01000
C85         C  0.36349045  0.26414021  0.45012503    -0.11100
C86         C  0.34010781  0.26192885  0.43225687     0.03500
C87         C  0.33977073  0.25804109  0.39952490    -0.10600
H88         H  0.40187425  0.25388325  0.39193909     0.09100
H89         H  0.36363733  0.26681707  0.47541019     0.06700
H90         H  0.32215428  0.25741751  0.38582739     0.06500
C91         C  0.20977290  0.10409750  0.38601465     0.03500
C92         C  0.21045614  0.12766813  0.40223663    -0.12600
C93         C  0.20810486  0.12705010  0.43526523     0.01000
C94         C  0.20562057  0.10292547  0.45215232    -0.11100
C95         C  0.20652710  0.08010572  0.43635723     0.03500
C96         C  0.20827125  0.08069111  0.40340402    -0.10600
H97         H  0.21166086  0.14593012  0.38918998     0.09100
H98         H  0.20436813  0.10254245  0.47761295     0.06700
H99         H  0.20861531  0.06281606  0.39124852     0.06500
C100        C  0.21645106  0.10954254  0.15543872     0.03500
C101        C  0.21332448  0.08496789  0.13918610    -0.12600
C102        C  0.20721615  0.08166083  0.10678209     0.01000
C103        C  0.20405936  0.10317528  0.09048198    -0.11100
C104        C  0.20847507  0.12849045  0.10613870     0.03500
C105        C  0.21461094  0.13143403  0.13854991    -0.10600
H106        H  0.21551336  0.06827759  0.15180317     0.09100
H107        H  0.19970618  0.10098881  0.06543777     0.06700
H108        H  0.21703294  0.15046109  0.15091129     0.06500
C109        C  0.24774311  0.32734609  0.08594591     0.42900
N110        N  0.24075575  0.28490508  0.07397768     0.01800
C111        C  0.28452681  0.24510758  0.43760855    -0.06100
H112        H  0.21649328  0.28734740  0.41769187     0.07200
C113        C  0.13690614  0.20275102  0.48062103    -0.06500
Co114      Co  0.27299380  0.28542920  0.01590001     0.74200
N115        N  0.23734588  0.28217297  0.45893967    -0.25600
Co116      Co  0.22553405  0.23799372  0.46009654     0.74100
C117        C  0.13868290  0.21817588  0.45126971     0.43000
N118        N  0.16570160  0.20992256  0.05603927     0.01400
N119        N  0.18125510  0.22485898  0.46235680     0.01500
N120        N  0.31590107  0.27642106  0.47404411    -0.46500
H121        H  0.27671259  0.34850788  0.04208536     0.07200
N122        N  0.25537578  0.30093064  0.47998850     0.01800
N123        N  0.21399549  0.19387280  0.46252074     0.01500
C124        C  0.20799293  0.15142302  0.45214633     0.43100
N125        N  0.18463637  0.22848903  0.07656454    -0.25100
C126        C  0.31722325  0.27526468  0.05635728    -0.06000
N127        N  0.23466784  0.29917585  0.09550274    -0.46200
N128        N  0.22043820  0.17933128  0.44156883    -0.46400
C129        C  0.31505328  0.25996857  0.08593043     0.42900
N130        N  0.28844929  0.26978021  0.47977743     0.01800
N131        N  0.21651338  0.19715500  0.07719003    -0.25100
N132        N  0.25756623  0.30204996  0.05106270    -0.25600
N133        N  0.19820029  0.17792250  0.05673249     0.01400
H134        H  0.23836863  0.19368633  0.11826766     0.07300
H135        H  0.17957823  0.13103704  0.49643911     0.07300
N136        N  0.26980733  0.25137203  0.45891372    -0.25700
N137        N  0.16435582  0.20797629  0.48543662    -0.25300
N138        N  0.27267175  0.25334692  0.07403880     0.01800
C139        C  0.24604411  0.32715386  0.44872625     0.43200
C140        C  0.17048625  0.23611091  0.09706637    -0.06500
N141        N  0.19759347  0.17700718  0.48587806    -0.25300
H142        H  0.11804323  0.18926667  0.49531720     0.07300
N143        N  0.26107741  0.32812815  0.47482544    -0.46500
H144        H  0.18029137  0.25065235  0.11685846     0.07300
C145        C  0.20835017  0.15286069  0.08901505     0.43000
C146        C  0.26292629  0.32943700  0.05635921    -0.06000
Co147      Co  0.22861942  0.24096937  0.07587591     0.73800
N148        N  0.13849351  0.20425913  0.06138772    -0.46200
C149        C  0.31493793  0.26163643  0.44769725     0.43300
N150        N  0.28686245  0.24703370  0.09544740    -0.46200
Co151      Co  0.17996542  0.19190742  0.02133165     0.73900
C152        C  0.19288246  0.14978804  0.48154245    -0.06500
C153        C  0.23041668  0.29678107  0.43801361    -0.06100
N154        N  0.28983763  0.27007206  0.05106881    -0.25600
N155        N  0.16677529  0.23125191  0.44136209    -0.46400
H156        H  0.27507422  0.23104873  0.41739757     0.07300
C157        C  0.22402158  0.18343336  0.09842509    -0.06500
Cl158      Cl  0.22644702  0.23875932  0.01848030    -0.49500
C159        C  0.14009790  0.22022929  0.08691842     0.43000
H160        H  0.33631302  0.28888387  0.04201443     0.07200
N161        N  0.19266786  0.15085091  0.06292258    -0.46200
C162        C  0.04374529  0.32894602  0.45393125     0.42900
N163        N  0.50831028  0.28563452  0.46483323     0.01800
C164        C  0.42349813  0.24195663  0.10033248    -0.06100
H165        H  0.03501949  0.28392406  0.12033147     0.07200
C166        C  0.03093576  0.20311029  0.05847430    -0.06500
Co167      Co  0.47761415  0.28670408  0.02459465     0.74200
N168        N  0.50887103  0.28070167  0.08006157    -0.25600
Co169      Co  0.47697703  0.23719047  0.07892486     0.74100
C170        C  0.04433559  0.21801750  0.08796165     0.43000
N171        N  0.50879283  0.21088380  0.48224060     0.01400
N172        N  0.50836314  0.22440879  0.07695874     0.01500
N173        N  0.42338095  0.27369942  0.06433665    -0.46500
H174        H  0.03514233  0.34892300  0.49809736     0.07200
N175        N  0.50984460  0.30020590  0.05983865     0.01800
N176        N  0.44501294  0.19370581  0.07696670     0.01500
C177        C  0.40858885  0.15194004  0.08918708     0.43100
N178        N  0.50812604  0.22941283  0.46175688    -0.25100
C179        C  0.42235707  0.27568465  0.48344369    -0.06000
N180        N  0.02918136  0.30085368  0.44412099    -0.46200
N181        N  0.42436699  0.17999649  0.09841487    -0.46400
C182        C  0.40893143  0.26038234  0.45413591     0.42900
N183        N  0.44518182  0.26838480  0.05929745     0.01800
N184        N  0.44497145  0.19753624  0.46159611    -0.25100
N185        N  0.50884409  0.30248309  0.48805716    -0.25600
N186        N  0.44438130  0.17847328  0.48221428     0.01400
H187        H  0.41941612  0.19327329  0.42035829     0.07300
H188        H  0.41552590  0.13015352  0.04539080     0.07300
N189        N  0.44552701  0.24982212  0.07993914    -0.25700
N190        N  0.50852870  0.20772596  0.05393556    -0.25300
N191        N  0.44471753  0.25369270  0.46547024     0.01800
C192        C  0.04619521  0.32486856  0.09087502     0.43200
C193        C  0.03080519  0.23741811  0.44211017    -0.06500
N194        N  0.44422014  0.17641459  0.05412781    -0.25300
H195        H  0.03630784  0.18976331  0.04369034     0.07300
N196        N  0.03234416  0.32727183  0.06519161    -0.46500
H197        H  0.03512893  0.25183145  0.42217425     0.07300
C198        C  0.40942934  0.15284399  0.45025356     0.43000
C199        C  0.03027873  0.33019322  0.48358782    -0.06000
Co200      Co  0.47649717  0.24158113  0.46294444     0.73800
N201        N  0.03148210  0.20568785  0.47774186    -0.46200
C202        C  0.40882914  0.25764784  0.08990306     0.43300
N203        N  0.42404568  0.24744191  0.44436108    -0.46200
Co204      Co  0.47655216  0.19296509  0.01880470     0.73900
C205        C  0.42152558  0.14931408  0.05963525    -0.06500
C206        C  0.03079067  0.29437785  0.10071725    -0.06100
N207        N  0.44455062  0.27045804  0.48839961    -0.25600
N208        N  0.02922973  0.23084722  0.09815616    -0.46400
H209        H  0.41850458  0.22713427  0.12001440     0.07300
C210        C  0.42382109  0.18337774  0.44037619    -0.06500
Cl211      Cl  0.47731466  0.23994728  0.02162535    -0.49500
C212        C  0.04548319  0.22156830  0.45182941     0.43000
H213        H  0.41706910  0.28932204  0.49784453     0.07200
N214        N  0.42316456  0.15127807  0.47641818    -0.46200
C215        C  0.24807481  0.42296202  0.45618047     0.42900
N216        N  0.24092462  0.45826744  0.46868202     0.01800
C217        C  0.28217725  0.04306630  0.10274763    -0.06100
H218        H  0.21590076  0.43062559  0.12194974     0.07200
C219        C  0.13758073  0.43461968  0.06136915    -0.06500
Co220      Co  0.27503094  0.49048943  0.02648448     0.74200
N221        N  0.23826360  0.45806883  0.08195310    -0.25600
Co222      Co  0.22566885  0.48972841  0.08155907     0.74100
C223        C  0.13978166  0.42097465  0.09045838     0.43000
N224        N  0.16537574  0.45748572  0.48692395     0.01400
N225        N  0.18181441  0.45777246  0.07952310     0.01500
N226        N  0.31499880  0.04516379  0.06673283    -0.46500
H227        H  0.27737551  0.43084942  0.49959331     0.07200
N228        N  0.25676376  0.45791131  0.06100864     0.01800
N229        N  0.21190140  0.02020051  0.07928616     0.01500
C230        C  0.20530635  0.05619272  0.09017383     0.43100
N231        N  0.18440794  0.45799990  0.46629331    -0.25100
C232        C  0.31754868  0.04485842  0.48667775    -0.06000
N233        N  0.23480575  0.43797209  0.44712439    -0.46200
N234        N  0.21834168  0.04117006  0.10012238    -0.46400
C235        C  0.31500580  0.05792777  0.45721720     0.42900
N236        N  0.28817696  0.02302526  0.06106664     0.01800
N237        N  0.21671201  0.02103941  0.46599619    -0.25100
N238        N  0.25796761  0.45805230  0.49127775    -0.25600
N239        N  0.19850371  0.02196571  0.48673651     0.01400
H240        H  0.23740525  0.04573216  0.42393154     0.07300
H241        H  0.17644095  0.04779919  0.04632952     0.07300
N242        N  0.26879243  0.02159575  0.08180688    -0.25700
N243        N  0.16473660  0.45740351  0.05664229    -0.25300
N244        N  0.27304130  0.02147702  0.46931175     0.01800
C245        C  0.24627607  0.42132763  0.09106955     0.43200
C246        C  0.17023068  0.43673377  0.44530846    -0.06500
N247        N  0.19510257  0.02026750  0.05633349    -0.25300
H248        H  0.11866099  0.42887435  0.04676977     0.07300
N249        N  0.26217023  0.43613967  0.06556209    -0.46500
H250        H  0.18006979  0.43240823  0.42517517     0.07300
C251        C  0.20756672  0.05643940  0.45383647     0.43000
C252        C  0.26346675  0.43611404  0.48561756    -0.06000
Co253      Co  0.22834826  0.48975747  0.46707292     0.73800
N254        N  0.13809347  0.43635722  0.48117099    -0.46200
C255        C  0.31267768  0.05864700  0.09279226     0.43300
N256        N  0.28687178  0.04218349  0.44793640    -0.46200
Co257      Co  0.18130613  0.48973147  0.02168985     0.73900
C258        C  0.18987810  0.04246372  0.06102971    -0.06500
C259        C  0.23056761  0.43584118  0.10206792    -0.06100
N260        N  0.29037886  0.02219842  0.49211348    -0.25600
N261        N  0.16775194  0.43655973  0.10036049    -0.46400
H262        H  0.27172230  0.04693141  0.12262186     0.07300
C263        C  0.22349955  0.04181722  0.44425414    -0.06500
Cl264      Cl  0.22813919  0.49007577  0.02418510    -0.49500
C265        C  0.13968775  0.42240932  0.45523721     0.43000
H266        H  0.33672423  0.05074416  0.50090041     0.07200
N267        N  0.19240626  0.04305640  0.48036423    -0.46200
C268        C  0.20422615  0.08967155  0.29674483     0.16400
C269        C  0.19816576  0.07705113  0.26678517    -0.32700
C270        C  0.21041053  0.09580277  0.24085957     0.20700
C271        C  0.22795382  0.12585930  0.24449088     0.02900
C272        C  0.23418990  0.13853834  0.27458526    -0.22400
C273        C  0.22179438  0.11970542  0.30061134     0.12100
S274        S  0.19137162  0.07043855  0.33092923    -0.06100
C275        C  0.20993115  0.10312022  0.35109348    -0.09500
C276        C  0.22501667  0.12762226  0.33179425    -0.26100
S277        S  0.23937960  0.14477759  0.20975209    -0.03300
C278        C  0.22012125  0.11175680  0.19014104    -0.16800
C279        C  0.20609525  0.08758685  0.20991186    -0.14800
H280        H  0.18429164  0.05360096  0.26379532     0.20600
H281        H  0.24779888  0.16201682  0.27755299     0.16600
H282        H  0.23812734  0.14991949  0.34010561     0.19100
H283        H  0.19228353  0.06521611  0.20208696     0.12500
C284        C  0.37594490  0.25503696  0.29536012     0.16400
C285        C  0.38830211  0.25914916  0.26529147    -0.33600
C286        C  0.36938948  0.25164920  0.23948980     0.20700
C287        C  0.33944358  0.24005561  0.24335187     0.02900
C288        C  0.32700136  0.23556037  0.27351182    -0.22400
C289        C  0.34602655  0.24361937  0.29937281     0.12100
S290        S  0.39544325  0.26429594  0.32944115    -0.06100
C291        C  0.36301750  0.25300470  0.34971777    -0.09500
C292        C  0.33843675  0.24231608  0.33046990    -0.26100
S293        S  0.32061352  0.23376662  0.20888324    -0.03300
C294        C  0.35355310  0.24729435  0.18890931    -0.16800
C295        C  0.37759417  0.25576883  0.20851767    -0.14800
H296        H  0.41173629  0.26848065  0.26212707     0.20600
H297        H  0.30365235  0.22689287  0.27665872     0.16600
H298        H  0.31614213  0.23405383  0.33860463     0.19100
H299        H  0.40019413  0.26563087  0.20081639     0.12500
C300        C  0.33831356  0.09494692  0.29841737     0.16400
C301        C  0.32929602  0.08285450  0.26845050    -0.32700
C302        C  0.34145539  0.10155458  0.24246121     0.20700
C303        C  0.36116723  0.13118749  0.24602061     0.02900
C304        C  0.36972287  0.14350743  0.27617281    -0.22400
C305        C  0.35809755  0.12454155  0.30226486     0.12100
S306        S  0.32789606  0.07521529  0.33248576    -0.06100
C307        C  0.35063967  0.10701825  0.35274702    -0.09500
C308        C  0.36516224  0.13167984  0.33337926    -0.26100
S309        S  0.37491948  0.14942206  0.21119359    -0.03300
C310        C  0.35422725  0.11655509  0.19155253    -0.16800
C311        C  0.33726093  0.09311667  0.21159581    -0.14800
H312        H  0.31427911  0.05959717  0.26547778     0.20600
H313        H  0.38556114  0.16654858  0.27911911     0.16600
H314        H  0.38033219  0.15365625  0.34136585     0.19100
H315        H  0.32366894  0.07055219  0.20439619     0.12500
C316        C  0.08803583  0.23708420  0.29593795     0.16400
C317        C  0.07906311  0.24085417  0.26604694    -0.32700
C318        C  0.08930779  0.23240293  0.23984335     0.20700
C319        C  0.10786814  0.22104613  0.24338787     0.02900
C320        C  0.11700505  0.21751087  0.27317974    -0.22400
C321        C  0.10654242  0.22565724  0.29933680     0.12100
S322        S  0.07678642  0.24434873  0.33067438    -0.06100
C323        C  0.09684506  0.23136719  0.35027200    -0.09500
C324        C  0.11184067  0.22250589  0.33027020    -0.26100
S325        S  0.11770681  0.21182801  0.20907721    -0.03300
C326        C  0.09671532  0.22347967  0.18917915    -0.16800
C327        C  0.08274246  0.23381891  0.20881818    -0.14800
H328        H  0.06438636  0.24954611  0.26337811     0.20600
H329        H  0.13130775  0.20838655  0.27586765     0.16600
H330        H  0.12488071  0.21295417  0.33774343     0.19100
H331        H  0.06887935  0.24232016  0.20097622     0.12500
C332        C  0.08969482  0.35264598  0.24628926     0.16400
C333        C  0.08056823  0.34033832  0.27638882    -0.32700
C334        C  0.09024057  0.35944034  0.30219738     0.20700
C335        C  0.10840811  0.38938484  0.29813451     0.02900
C336        C  0.11767080  0.40166085  0.26809376    -0.22400
C337        C  0.10779293  0.38260296  0.24230771     0.12100
S338        S  0.07906017  0.33349139  0.21194994    -0.06100
C339        C  0.09879582  0.36626598  0.19169481    -0.09500
C340        C  0.11326976  0.39053257  0.21120143    -0.26100
S341        S  0.11765710  0.40885874  0.33218798    -0.03300
C342        C  0.09687596  0.37633759  0.35258599    -0.16800
C343        C  0.08347044  0.35179487  0.33330996    -0.14800
H344        H  0.06620725  0.31694576  0.27951017     0.20600
H345        H  0.13166286  0.42510614  0.26493334     0.16600
H346        H  0.12597600  0.41304337  0.20322645     0.19100
H347        H  0.06988638  0.32945803  0.34149035     0.12500
C348        C  0.23308110  0.35479562  0.24446138     0.16400
C349        C  0.22628038  0.34235443  0.27465768    -0.32700
C350        C  0.23440892  0.36146921  0.30039893     0.20700
C351        C  0.24843188  0.39159944  0.29629267     0.02900
C352        C  0.25509802  0.40404285  0.26610042    -0.22400
C353        C  0.24716932  0.38493124  0.24039155     0.12100
S354        S  0.22566071  0.33548092  0.21021209    -0.06100
C355        C  0.24157005  0.36838328  0.18999543    -0.09500
C356        C  0.25216459  0.39285265  0.20933043    -0.26100
S357        S  0.25708894  0.41097505  0.33054352    -0.03300
C358        C  0.24207929  0.37813413  0.35089230    -0.16800
C359        C  0.23055985  0.35361104  0.33154701    -0.14800
H360        H  0.21543812  0.31881323  0.27796669     0.20600
H361        H  0.26624348  0.42759434  0.26279762     0.16600
H362        H  0.26335447  0.41539276  0.20124161     0.19100
H363        H  0.22006478  0.33110693  0.33968284     0.12500
C364        C  0.24285985  0.37004759  0.65529834     0.03500
C365        C  0.24370906  0.39414690  0.64011412    -0.12600
C366        C  0.24675013  0.39737371  0.60734635     0.01000
C367        C  0.24936087  0.37650712  0.58940680    -0.11100
C368        C  0.24711007  0.35156492  0.60398914     0.03500
C369        C  0.24374029  0.34838933  0.63688217    -0.10600
H370        H  0.24186267  0.41047316  0.65377327     0.09100
H371        H  0.25150610  0.37887171  0.56404835     0.06700
H372        H  0.24261644  0.32939291  0.64816358     0.06500
C373        C  0.24542522  0.37609926  0.88636607     0.03500
C374        C  0.24463546  0.35216873  0.90194650    -0.12600
C375        C  0.24703214  0.35189712  0.93481886     0.01000
C376        C  0.25050509  0.37596717  0.95244081    -0.11100
C377        C  0.24995079  0.39946656  0.93745089     0.03500
C378        C  0.24749245  0.39938438  0.90449010    -0.10600
H379        H  0.24317027  0.33406491  0.88851149     0.09100
H380        H  0.25213882  0.37571087  0.97783945     0.06700
H381        H  0.24728310  0.41764179  0.89297101     0.06500
C382        C  0.09808827  0.37428367  0.88801595     0.03500
C383        C  0.07389401  0.35166445  0.90432337    -0.12600
C384        C  0.07104465  0.35323130  0.93722977     0.01000
C385        C  0.09272969  0.37734572  0.95384787    -0.11100
C386        C  0.11750024  0.39901437  0.93809226     0.03500
C387        C  0.11980727  0.39752507  0.90546135    -0.10600
H388        H  0.05683132  0.33331986  0.89155407     0.09100
H389        H  0.09112911  0.37850209  0.97916982     0.06700
H390        H  0.13894447  0.41474062  0.89366319     0.06500
C391        C  0.09521775  0.36850521  0.65711548     0.03500
C392        C  0.11703894  0.39252550  0.64015191    -0.12600
C393        C  0.11404938  0.39555491  0.60768819     0.01000
C394        C  0.08916394  0.37414534  0.59181512    -0.11100
C395        C  0.06798947  0.34932382  0.60803245     0.03500
C396        C  0.07099394  0.34684794  0.64056211    -0.10600
H397        H  0.13644593  0.40902582  0.65206338     0.09100
H398        H  0.08704654  0.37598898  0.56668195     0.06700
H399        H  0.05401140  0.32805505  0.65303388     0.06500
C400        C  0.09363271  0.21988074  0.65470949     0.03500
C401        C  0.07047049  0.21975531  0.63813543    -0.12600
C402        C  0.06911626  0.21740418  0.60512407     0.01000
C403        C  0.09115243  0.21537229  0.58858566    -0.11100
C404        C  0.11510414  0.21711502  0.60471888     0.03500
C405        C  0.11607109  0.21911423  0.63759322    -0.10600
H406        H  0.05299692  0.22050427  0.65082049     0.09100
H407        H  0.09051465  0.21406929  0.56312720     0.06700
H408        H  0.13460634  0.22020706  0.64985369     0.06500
C409        C  0.09352210  0.22574850  0.88556204     0.03500
C410        C  0.07047110  0.22503772  0.90278294    -0.12600
C411        C  0.06835920  0.22076716  0.93544765     0.01000
C412        C  0.08942849  0.21673989  0.95129379    -0.11100
C413        C  0.11343976  0.21857969  0.93473337     0.03500
C414        C  0.11536452  0.22311272  0.90191384    -0.10600
H415        H  0.05350964  0.22705036  0.89063348     0.09100
H416        H  0.08794253  0.21372731  0.97659240     0.06700
H417        H  0.13390284  0.22455222  0.88921197     0.06500
C418        C  0.35501663  0.11137609  0.88847806     0.03500
C419        C  0.33359455  0.08745619  0.90586553    -0.12600
C420        C  0.33746162  0.08459321  0.93821476     0.01000
C421        C  0.36273470  0.10617970  0.95336377    -0.11100
C422        C  0.38342995  0.13090779  0.93662240     0.03500
C423        C  0.37950728  0.13326766  0.90433758    -0.10600
H424        H  0.31442041  0.07043093  0.89403126     0.09100
H425        H  0.36568910  0.10440720  0.97832535     0.06700
H426        H  0.39575265  0.15225105  0.89142319     0.06500
C427        C  0.36244273  0.10844471  0.65814788     0.03500
C428        C  0.38557690  0.12941640  0.63957582    -0.12600
C429        C  0.38582373  0.12620419  0.60680500     0.01000
C430        C  0.36292679  0.10153470  0.59237728    -0.11100
C431        C  0.33909563  0.08094628  0.61033398     0.03500
C432        C  0.33891564  0.08443090  0.64314612    -0.10600
H433        H  0.40346043  0.14854095  0.65058103     0.09100
H434        H  0.36285641  0.09918748  0.56704182     0.06700
H435        H  0.32080482  0.06801945  0.65696805     0.06500
C436        C  0.35626783  0.25245140  0.65367877     0.03500
C437        C  0.33561459  0.25566232  0.63575225    -0.12600
C438        C  0.33911594  0.26043369  0.60305364     0.01000
C439        C  0.36366440  0.26221086  0.58798912    -0.11100
C440        C  0.38368342  0.25755193  0.60517448     0.03500
C441        C  0.37981164  0.25258511  0.63778206    -0.10600
H442        H  0.31691011  0.25501782  0.64720594     0.09100
H443        H  0.36634031  0.26561920  0.56276715     0.06700
H444        H  0.39542680  0.24899210  0.65064007     0.06500
C445        C  0.36084222  0.25319458  0.88548019     0.03500
C446        C  0.38377575  0.25461767  0.90384273    -0.12600
C447        C  0.38489225  0.25913882  0.93656687     0.01000
C448        C  0.36242607  0.26169639  0.95132756    -0.11100
C449        C  0.33857631  0.25873978  0.93372058     0.03500
C450        C  0.33809715  0.25488164  0.90098774    -0.10600
H451        H  0.40123848  0.25268891  0.89269658     0.09100
H452        H  0.36279854  0.26461071  0.97658664     0.06700
H453        H  0.32012562  0.25388552  0.88776302     0.06500
C454        C  0.21343883  0.10537127  0.88739270     0.03500
C455        C  0.21228699  0.12809284  0.90352822    -0.12600
C456        C  0.20846443  0.12679776  0.93642287     0.01000
C457        C  0.20599133  0.10276119  0.95339698    -0.11100
C458        C  0.20838768  0.08073754  0.93779201     0.03500
C459        C  0.21200058  0.08216577  0.90505188    -0.10600
H460        H  0.21331797  0.14631674  0.89064977     0.09100
H461        H  0.20350637  0.10181167  0.97875757     0.06700
H462        H  0.21353828  0.06479658  0.89330374     0.06500
C463        C  0.21677062  0.11109519  0.65601744     0.03500
C464        C  0.21448278  0.08682974  0.63967626    -0.12600
C465        C  0.20948593  0.08394794  0.60704133     0.01000
C466        C  0.20706015  0.10565287  0.59038257    -0.11100
C467        C  0.21074845  0.13064344  0.60595452     0.03500
C468        C  0.21543607  0.13312594  0.63862269    -0.10600
H469        H  0.21643140  0.06997912  0.65214923     0.09100
H470        H  0.20368681  0.10379203  0.56515835     0.06700
H471        H  0.21734205  0.15210965  0.65054815     0.06500
C472        C  0.24726290  0.32821680  0.58513489     0.42900
N473        N  0.24097531  0.28611046  0.57293967     0.01800
C474        C  0.28299341  0.24267516  0.93879541    -0.06100
H475        H  0.21526730  0.28648912  0.91944433     0.07200
C476        C  0.13543621  0.20165797  0.98103928    -0.06500
Co477      Co  0.27377680  0.28723063  0.51494463     0.74200
N478        N  0.23645510  0.28098840  0.96017058    -0.25600
Co479      Co  0.22423109  0.23677542  0.96090705     0.74100
C480        C  0.13715294  0.21699090  0.95163864     0.43000
N481        N  0.16665384  0.21047785  0.55571398     0.01400
N482        N  0.17987517  0.22395632  0.96295595     0.01500
N483        N  0.31449323  0.27350678  0.97542164    -0.46500
H484        H  0.27637266  0.34991741  0.54144632     0.07200
N485        N  0.25478950  0.29956921  0.98114303     0.01800
N486        N  0.21235841  0.19269436  0.96318075     0.01500
C487        C  0.20706599  0.15057483  0.95297261     0.43100
N488        N  0.18539226  0.22914192  0.57630094    -0.25100
C489        C  0.31826954  0.27730907  0.55538794    -0.06000
N490        N  0.23450702  0.30004142  0.59449093    -0.46200
N491        N  0.21934581  0.17844689  0.94246815    -0.46400
C492        C  0.31606398  0.26197515  0.58497201     0.42900
N493        N  0.28721592  0.26762833  0.98077429     0.01800
N494        N  0.21837089  0.19895255  0.57659314    -0.25100
N495        N  0.25776745  0.30346112  0.55011725    -0.25600
N496        N  0.20024762  0.17955711  0.55614693     0.01400
H497        H  0.24045003  0.19592214  0.61774990     0.07300
H498        H  0.17845841  0.12984797  0.99711731     0.07300
N499        N  0.26846934  0.24952988  0.95979237    -0.25700
N500        N  0.16293275  0.20702952  0.98597763    -0.25300
N501        N  0.27375655  0.25550960  0.57315720     0.01800
C502        C  0.24537231  0.32608775  0.95044326     0.43200
C503        C  0.17079517  0.23563220  0.59749286    -0.06500
N504        N  0.19586325  0.17571966  0.98642226    -0.25300
H505        H  0.11653725  0.18803105  0.99563135     0.07300
N506        N  0.26067808  0.32686283  0.97622927    -0.46500
H507        H  0.18033994  0.24980346  0.61760748     0.07300
C508        C  0.21095629  0.15496166  0.58844833     0.43000
C509        C  0.26268569  0.33069372  0.55556319    -0.06000
Co510      Co  0.22963169  0.24249323  0.57511692     0.73800
N511        N  0.13917457  0.20371448  0.56163380    -0.46200
C512        C  0.31337900  0.25846129  0.94924962     0.43300
N513        N  0.28791297  0.24911692  0.59448255    -0.46200
Co514      Co  0.18152630  0.19304808  0.52079936     0.73900
C515        C  0.19152312  0.14862442  0.98216198    -0.06500
C516        C  0.22942753  0.29577299  0.93962558    -0.06100
N517        N  0.29088877  0.27221735  0.55016565    -0.25600
N518        N  0.16532388  0.23018478  0.94182824    -0.46400
H519        H  0.27342258  0.22856478  0.91864450     0.07300
C520        C  0.22622482  0.18552724  0.59785365    -0.06500
Cl521      Cl  0.22760786  0.24019194  0.51770199    -0.49500
C522        C  0.14032358  0.21894075  0.58768867     0.43000
H523        H  0.33733603  0.29076558  0.54094459     0.07200
N524        N  0.19515221  0.15265556  0.56237280    -0.46200
C525        C  0.04581699  0.32950632  0.95438801     0.42900
N526        N  0.50994973  0.28688064  0.96660994     0.01800
C527        C  0.42264720  0.24084540  0.59946864    -0.06100
H528        H  0.03352574  0.28415045  0.62078234     0.07200
C529        C  0.03168285  0.20262536  0.55844048    -0.06500
Co530      Co  0.47670832  0.28554661  0.52341229     0.74200
N531        N  0.50785415  0.27984064  0.57910365    -0.25600
Co532      Co  0.47616623  0.23600891  0.57773762     0.74100
C533        C  0.04490652  0.21745096  0.58791818     0.43000
N534        N  0.50903537  0.21098347  0.98374482     0.01400
N535        N  0.50783814  0.22358181  0.57577643     0.01500
N536        N  0.42278095  0.27280303  0.56361265    -0.46500
H537        H  0.03842011  0.35021897  0.99874330     0.07200
N538        N  0.50882337  0.29916169  0.55859210     0.01800
N539        N  0.44447315  0.19218333  0.57545948     0.01500
C540        C  0.40928747  0.14968229  0.58790965     0.43100
N541        N  0.50907295  0.22988796  0.96325560    -0.25100
C542        C  0.42259313  0.27588361  0.98428410    -0.06000
N543        N  0.03023637  0.30149042  0.94455855    -0.46200
N544        N  0.42428601  0.17781814  0.59718748    -0.46400
C545        C  0.40934519  0.26036814  0.95488967     0.42900
N546        N  0.44430736  0.26714375  0.55829588     0.01800
N547        N  0.44580611  0.19906639  0.96312634    -0.25100
N548        N  0.50993204  0.30356563  0.98972039    -0.25600
N549        N  0.44457606  0.17974087  0.98379155     0.01400
H550        H  0.41991101  0.19586865  0.92267320     0.07300
H551        H  0.41698193  0.12861779  0.54404077     0.07300
N552        N  0.44451482  0.24843513  0.57885034    -0.25700
N553        N  0.50826872  0.20719017  0.55256677    -0.25300
N554        N  0.44614883  0.25517286  0.96622917     0.01800
C555        C  0.04358154  0.32478023  0.59128268     0.43200
C556        C  0.03015190  0.23793952  0.94249906    -0.06500
N557        N  0.44413503  0.17516070  0.55253011    -0.25300
H558        H  0.03690842  0.18905010  0.54385324     0.07300
N559        N  0.02981482  0.32654683  0.56516420    -0.46500
H560        H  0.03488899  0.25256605  0.92267646     0.07300
C561        C  0.40870372  0.15510098  0.95254265     0.43000
C562        C  0.03269548  0.33134583  0.98410904    -0.06000
Co563      Co  0.47785919  0.24284140  0.96427701     0.73800
N564        N  0.03027175  0.20600639  0.97823311    -0.46200
C565        C  0.40824675  0.25689736  0.58927270     0.43300
N566        N  0.42525089  0.24826294  0.94518022    -0.46200
Co567      Co  0.47639843  0.19225006  0.51728877     0.73900
C568        C  0.42221210  0.14767740  0.55814126    -0.06500
C569        C  0.02918213  0.29422472  0.60088302    -0.06100
N570        N  0.44544158  0.27157856  0.98924861    -0.25600
N571        N  0.02980416  0.23035520  0.59806189    -0.46400
H572        H  0.41772899  0.22615623  0.61926409     0.07300
C573        C  0.42414661  0.18554325  0.94240077    -0.06500
Cl574      Cl  0.47647092  0.23885290  0.52034497    -0.49500
C575        C  0.04459408  0.22191473  0.95248351     0.43000
H576        H  0.41653473  0.28881603  0.99888682     0.07200
N577        N  0.42244748  0.15289619  0.97838250    -0.46200
C578        C  0.25053589  0.42357019  0.95585829     0.42900
N579        N  0.24331817  0.45892541  0.96824665     0.01800
C580        C  0.28337932  0.04212910  0.60492287    -0.06100
H581        H  0.21532585  0.43100477  0.62306921     0.07200
C582        C  0.13553533  0.43458423  0.56156143    -0.06500
Co583      Co  0.27306514  0.49007645  0.52660743     0.74200
N584        N  0.23662296  0.45777720  0.58231032    -0.25600
Co585      Co  0.22383394  0.48924008  0.58176684     0.74100
C586        C  0.13757265  0.42070713  0.59052916     0.43000
N587        N  0.16758296  0.45781088  0.98673475     0.01400
N588        N  0.17984305  0.45728606  0.57963504     0.01500
N589        N  0.31508946  0.04285907  0.56828862    -0.46500
H590        H  0.27944638  0.43131403  0.99956852     0.07200
N591        N  0.25511720  0.45771467  0.56130254     0.01800
N592        N  0.21286615  0.02173473  0.58011928     0.01500
C593        C  0.20754020  0.05851832  0.59047771     0.43100
N594        N  0.18671576  0.45852802  0.96611028    -0.25100
C595        C  0.31762873  0.04623391  0.98532264    -0.06000
N596        N  0.23734246  0.43864563  0.94665889    -0.46200
N597        N  0.21990387  0.04298206  0.60074084    -0.46400
C598        C  0.31478762  0.05919411  0.95594935     0.42900
N599        N  0.28778799  0.02184553  0.56256750     0.01800
N600        N  0.21664856  0.02030415  0.96554721    -0.25100
N601        N  0.26018389  0.45861378  0.99099044    -0.25600
N602        N  0.19818403  0.02080977  0.98623488     0.01400
H603        H  0.23918754  0.04672919  0.92517147     0.07300
H604        H  0.17877183  0.05054365  0.54664259     0.07300
N605        N  0.26894490  0.02117355  0.58356271    -0.25700
N606        N  0.16279796  0.45719491  0.55684917    -0.25300
N607        N  0.27327183  0.02186837  0.96769293     0.01800
C608        C  0.24582972  0.42194697  0.59209482     0.43200
C609        C  0.17275956  0.43713177  0.94526215    -0.06500
N610        N  0.19626057  0.02210160  0.55707311    -0.25300
H611        H  0.11663991  0.42910050  0.54702540     0.07300
N612        N  0.26117988  0.43644839  0.56620805    -0.46500
H613        H  0.18276576  0.43283628  0.92526194     0.07300
C614        C  0.20892136  0.05680040  0.95505108     0.43000
C615        C  0.26570194  0.43666735  0.98541489    -0.06000
Co616      Co  0.23052783  0.49040440  0.96688296     0.73800
N617        N  0.14041134  0.43642720  0.98108218    -0.46200
C618        C  0.31384650  0.05644195  0.59471518     0.43300
N619        N  0.28676661  0.04284231  0.94645534    -0.46200
Co620      Co  0.17942745  0.48953537  0.52187712     0.73900
C621        C  0.19187470  0.04484652  0.56144479    -0.06500
C622        C  0.22965740  0.43603836  0.60291066    -0.06100
N623        N  0.29075894  0.02307246  0.99055443    -0.25600
N624        N  0.16560375  0.43603167  0.60040639    -0.46400
H625        H  0.27372901  0.04638383  0.62527352     0.07300
C626        C  0.22450725  0.04205128  0.94493769    -0.06500
Cl627      Cl  0.22616121  0.48964361  0.52434913    -0.49500
C628        C  0.14223071  0.42252968  0.95523829     0.43000
H629        H  0.33679840  0.05261564  0.99973668     0.07200
N630        N  0.19283384  0.04255582  0.98080769    -0.46200
C631        C  0.21327696  0.09180311  0.79793677     0.16400
C632        C  0.21014749  0.07952559  0.76799737    -0.32700
C633        C  0.21616818  0.09801518  0.74190477     0.20700
C634        C  0.22518609  0.12744541  0.74549613     0.02900
C635        C  0.22852125  0.13979027  0.77550034    -0.22400
C636        C  0.22219740  0.12120768  0.80162878     0.12100
S637        S  0.20615162  0.07280051  0.83227215    -0.06100
C638        C  0.21518523  0.10475210  0.85236910    -0.09500
C639        C  0.22339654  0.12883323  0.83271880    -0.26100
S640        S  0.23040236  0.14585846  0.71089469    -0.03300
C641        C  0.21995163  0.11346597  0.69099868    -0.16800
C642        C  0.21320499  0.08986543  0.71090113    -0.14800
H643        H  0.20290708  0.05646352  0.76516755     0.20600
H644        H  0.23529840  0.16273899  0.77832762     0.16600
H645        H  0.23001875  0.15081437  0.84048924     0.19100
H646        H  0.20546589  0.06756591  0.70343949     0.12500
C647        C  0.37404945  0.25249775  0.79567574     0.16400
C648        C  0.38609770  0.25508504  0.76560163    -0.33600
C649        C  0.36816072  0.25132630  0.73962022     0.20700
C650        C  0.33946308  0.24507990  0.74334561     0.02900
C651        C  0.32734929  0.24237395  0.77347757    -0.22400
C652        C  0.34538776  0.24632881  0.79950949     0.12100
S653        S  0.39249205  0.25713072  0.83004906    -0.06100
C654        C  0.36137691  0.25097688  0.85036611    -0.09500
C655        C  0.33791714  0.24526296  0.83065614    -0.26100
S656        S  0.32172384  0.24205513  0.70874161    -0.03300
C657        C  0.35343081  0.24949976  0.68872010    -0.16800
C658        C  0.37628720  0.25388279  0.70860592    -0.14800
H659        H  0.40859575  0.26014776  0.76258044     0.20600
H660        H  0.30498273  0.23774430  0.77649786     0.16600
H661        H  0.31640440  0.24064341  0.83828769     0.19100
H662        H  0.39817262  0.25957312  0.70117227     0.12500
C663        C  0.33923027  0.10650780  0.79920656     0.16400
C664        C  0.32689431  0.09903375  0.76902077    -0.32700
C665        C  0.34619305  0.10712375  0.74321526     0.20700
C666        C  0.37635925  0.12246338  0.74729132     0.02900
C667        C  0.38866395  0.13029769  0.77735347    -0.22400
C668        C  0.36940769  0.12176645  0.80310626     0.12100
S669        S  0.31982427  0.09661720  0.83374659    -0.06100
C670        C  0.35279594  0.11288321  0.85371837    -0.09500
C671        C  0.37729654  0.12568860  0.83413077    -0.26100
S672        S  0.39606296  0.12972506  0.71329183    -0.03300
C673        C  0.36334882  0.11178391  0.69296173    -0.16800
C674        C  0.33856916  0.10088286  0.71212239    -0.14800
H675        H  0.30332022  0.08678009  0.76584383     0.20600
H676        H  0.41222678  0.14191435  0.78058204     0.16600
H677        H  0.39983633  0.13605768  0.84202733     0.19100
H678        H  0.31613420  0.08918978  0.70383714     0.12500
C679        C  0.08561208  0.23442327  0.79621150     0.16400
C680        C  0.07784634  0.23931125  0.76611636    -0.32700
C681        C  0.08708699  0.22952948  0.74011550     0.20700
C682        C  0.10332848  0.21563344  0.74406737     0.02900
C683        C  0.11110669  0.21085385  0.77402424    -0.22400
C684        C  0.10190394  0.22056405  0.79992179     0.12100
S685        S  0.07590731  0.24362534  0.83084937    -0.06100
C686        C  0.09394140  0.22848997  0.85065863    -0.09500
C687        C  0.10686534  0.21723506  0.83088193    -0.26100
S688        S  0.11261033  0.20543092  0.71000867    -0.03300
C689        C  0.09463844  0.22017088  0.68966540    -0.16800
C690        C  0.08190252  0.23212951  0.70890435    -0.14800
H691        H  0.06505660  0.25008339  0.76312433     0.20600
H692        H  0.12372520  0.19990900  0.77702052     0.16600
H693        H  0.11840463  0.20616459  0.83861567     0.19100
H694        H  0.06999049  0.24264972  0.70061085     0.12500
C695        C  0.08992729  0.35174971  0.74644313     0.16400
C696        C  0.08133567  0.33932466  0.77656841    -0.32700
C697        C  0.09309492  0.35804002  0.80252193     0.20700
C698        C  0.11300024  0.38763560  0.79854099     0.02900
C699        C  0.12196514  0.39996379  0.76847713    -0.22400
C700        C  0.10972000  0.38137708  0.74255642     0.12100
S701        S  0.07636747  0.33330984  0.71206474    -0.06100
C702        C  0.09718194  0.36596445  0.69190980    -0.09500
C703        C  0.11411454  0.38964288  0.71149259    -0.26100
S704        S  0.12387649  0.40686094  0.83267315    -0.03300
C705        C  0.10115917  0.37477232  0.85304382    -0.16800
C706        C  0.08626746  0.35047107  0.83365691    -0.14800
H707        H  0.06550557  0.31624591  0.77961266     0.20600
H708        H  0.13717439  0.42320283  0.76541767     0.16600
H709        H  0.12793889  0.41208368  0.70376332     0.19100
H710        H  0.07115181  0.32841510  0.84168213     0.12500
C711        C  0.23394523  0.35387451  0.74471370     0.16400
C712        C  0.22760102  0.34135652  0.77494780    -0.32700
C713        C  0.23684712  0.36047534  0.80081297     0.20700
C714        C  0.25165061  0.39062906  0.79672844     0.02900
C715        C  0.25800486  0.40310684  0.76657644    -0.22400
C716        C  0.24879726  0.38404593  0.74078706     0.12100
S717        S  0.22493969  0.33470854  0.71020430    -0.06100
C718        C  0.24127040  0.36776901  0.69019843    -0.09500
C719        C  0.25307887  0.39212314  0.70974851    -0.26100
S720        S  0.26104660  0.41008447  0.83091092    -0.03300
C721        C  0.24502702  0.37729268  0.85135121    -0.16800
C722        C  0.23296936  0.35266813  0.83204137    -0.14800
H723        H  0.21605232  0.31778593  0.77817067     0.20600
H724        H  0.26965031  0.42667500  0.76335114     0.16600
H725        H  0.26468877  0.41469959  0.70178320     0.19100
H726        H  0.22175050  0.33017215  0.84025262     0.12500
C727        C  0.24467394  0.87166545  0.15643072     0.03500
C728        C  0.24605917  0.89572537  0.14058615    -0.12600
C729        C  0.25010353  0.89891588  0.10790149     0.01000
C730        C  0.25316677  0.87793731  0.09066509    -0.11100
C731        C  0.25037205  0.85294503  0.10581833     0.03500
C732        C  0.24619876  0.84998043  0.13865179    -0.10600
H733        H  0.24359704  0.91198797  0.15362312     0.09100
H734        H  0.25583310  0.88013620  0.06534063     0.06700
H735        H  0.24459004  0.83093376  0.15033274     0.06500
C736        C  0.24352602  0.87636656  0.38715307     0.03500
C737        C  0.24391944  0.85273857  0.40210672    -0.12600
C738        C  0.24716463  0.85240488  0.43486328     0.01000
C739        C  0.25048965  0.87614341  0.45294809    -0.11100
C740        C  0.24887375  0.89926773  0.43856453     0.03500
C741        C  0.24553232  0.89927946  0.40578407    -0.10600
H742        H  0.24252735  0.83485590  0.38831320     0.09100
H743        H  0.25267722  0.87581960  0.47827262     0.06700
H744        H  0.24442810  0.91727909  0.39481132     0.06500
C745        C  0.09674258  0.87492433  0.38817103     0.03500
C746        C  0.07246433  0.85210187  0.40414443    -0.12600
C747        C  0.06938030  0.85339101  0.43705829     0.01000
C748        C  0.09085768  0.87746185  0.45394865    -0.11100
C749        C  0.11575245  0.89927686  0.43851396     0.03500
C750        C  0.11827642  0.89808038  0.40585646    -0.10600
H751        H  0.05564329  0.83379214  0.39108015     0.09100
H752        H  0.08912602  0.87835470  0.47928460     0.06700
H753        H  0.13751922  0.91531524  0.39419401     0.06500
C754        C  0.09858711  0.86761251  0.15767413     0.03500
C755        C  0.12023485  0.89131173  0.14020898    -0.12600
C756        C  0.11663474  0.89404444  0.10778640     0.01000
C757        C  0.09121208  0.87266582  0.09258783    -0.11100
C758        C  0.07003720  0.84822934  0.10938533     0.03500
C759        C  0.07380466  0.84599384  0.14180965    -0.10600
H760        H  0.13987488  0.90780810  0.15183498     0.09100
H761        H  0.08851769  0.87434141  0.06754415     0.06700
H762        H  0.05690618  0.82758288  0.15484966     0.06500
C763        C  0.09502550  0.72344727  0.15589408     0.03500
C764        C  0.07078917  0.72148984  0.13975110    -0.12600
C765        C  0.06874416  0.71822799  0.10681234     0.01000
C766        C  0.09102175  0.71701623  0.08995134    -0.11100
C767        C  0.11582237  0.72043005  0.10564048     0.03500
C768        C  0.11762657  0.72350456  0.13835763    -0.10600
H769        H  0.05309169  0.72158651  0.15265902     0.09100
H770        H  0.08979375  0.71491879  0.06455787     0.06700
H771        H  0.13685891  0.72581867  0.15017690     0.06500
C772        C  0.09365489  0.72617432  0.38648527     0.03500
C773        C  0.06974217  0.72377184  0.40350255    -0.12600
C774        C  0.06758597  0.71938599  0.43611306     0.01000
C775        C  0.08915265  0.71632029  0.45208121    -0.11100
C776        C  0.11377092  0.71945589  0.43566989     0.03500
C777        C  0.11601457  0.72461922  0.40298568    -0.10600
H778        H  0.05232264  0.72496014  0.39134550     0.09100
H779        H  0.08756309  0.71312332  0.47735365     0.06700
H780        H  0.13518961  0.72732781  0.39055081     0.06500
C781        C  0.35355160  0.60750842  0.38783446     0.03500
C782        C  0.33258016  0.58454837  0.40657712    -0.12600
C783        C  0.33706491  0.58297145  0.43889318     0.01000
C784        C  0.36279035  0.60482833  0.45295727    -0.11100
C785        C  0.38339693  0.62871879  0.43501530     0.03500
C786        C  0.37887791  0.62976118  0.40252736    -0.10600
H787        H  0.31258356  0.56752781  0.39601406     0.09100
H788        H  0.36607480  0.60402299  0.47801317     0.06700
H789        H  0.39551716  0.64773993  0.38880338     0.06500
C790        C  0.35868896  0.61095011  0.15751416     0.03500
C791        C  0.38322617  0.63149527  0.14003977    -0.12600
C792        C  0.38580266  0.62748858  0.10763309     0.01000
C793        C  0.36384783  0.60241058  0.09265576    -0.11100
C794        C  0.33872834  0.58242063  0.10938477     0.03500
C795        C  0.33631467  0.58680108  0.14156106    -0.10600
H796        H  0.40055026  0.65065191  0.15156238     0.09100
H797        H  0.36542460  0.59937469  0.06766680     0.06700
H798        H  0.31670478  0.57129362  0.15402178     0.06500
C799        C  0.35601843  0.75217090  0.15433719     0.03500
C800        C  0.33465110  0.75397132  0.13621010    -0.12600
C801        C  0.33803105  0.75856157  0.10355372     0.01000
C802        C  0.36295891  0.76124692  0.08857989    -0.11100
C803        C  0.38369892  0.75799739  0.10598717     0.03500
C804        C  0.38032617  0.75377205  0.13864687    -0.10600
H805        H  0.31532632  0.75217113  0.14739323     0.09100
H806        H  0.36544334  0.76429129  0.06330359     0.06700
H807        H  0.39708550  0.75212941  0.15152912     0.06500
C808        C  0.36139075  0.75495857  0.38542000     0.03500
C809        C  0.38434379  0.75637001  0.40366056    -0.12600
C810        C  0.38537354  0.76060661  0.43638072     0.01000
C811        C  0.36310005  0.76341794  0.45125198    -0.11100
C812        C  0.33929024  0.76061708  0.43371669     0.03500
C813        C  0.33873229  0.75671868  0.40104003    -0.10600
H814        H  0.40182313  0.75448737  0.39250252     0.09100
H815        H  0.36343062  0.76610976  0.47654286     0.06700
H816        H  0.32033543  0.75505103  0.38810542     0.06500
C817        C  0.20979446  0.60431433  0.38642323     0.03500
C818        C  0.20955912  0.62749753  0.40248086    -0.12600
C819        C  0.20634402  0.62651183  0.43542423     0.01000
C820        C  0.20379243  0.60242771  0.45238732    -0.11100
C821        C  0.20564001  0.58008820  0.43676605     0.03500
C822        C  0.20833366  0.58102702  0.40392330    -0.10600
H823        H  0.21076468  0.64573218  0.38938408     0.09100
H824        H  0.20188984  0.60178008  0.47780305     0.06700
H825        H  0.20938924  0.56346436  0.39192448     0.06500
C826        C  0.21555157  0.60999687  0.15600857     0.03500
C827        C  0.21319707  0.58577660  0.13966002    -0.12600
C828        C  0.20773660  0.58274265  0.10713565     0.01000
C829        C  0.20440757  0.60417773  0.09081011    -0.11100
C830        C  0.20797967  0.62912326  0.10663109     0.03500
C831        C  0.21346495  0.63176194  0.13914831    -0.10600
H832        H  0.21558389  0.56919547  0.15225051     0.09100
H833        H  0.20058112  0.60224466  0.06566659     0.06700
H834        H  0.21532487  0.65053828  0.15155892     0.06500
C835        C  0.25019315  0.82909390  0.08747332     0.42900
N836        N  0.24171315  0.78620562  0.07489026     0.01800
C837        C  0.28351115  0.74374923  0.43884812    -0.06100
H838        H  0.21616236  0.78714733  0.41892122     0.07200
C839        C  0.13588438  0.70262428  0.48166671    -0.06500
Co840      Co  0.27320702  0.78602582  0.01645619     0.74200
N841        N  0.23677501  0.78157080  0.46011533    -0.25600
Co842      Co  0.22447726  0.73733613  0.46097621     0.74100
C843        C  0.13763820  0.71827308  0.45255438     0.43000
N844        N  0.16601506  0.71162201  0.05712629     0.01400
N845        N  0.18019879  0.72463552  0.46323853     0.01500
N846        N  0.31480131  0.77474200  0.47553070    -0.46500
H847        H  0.27896317  0.84984765  0.04337267     0.07200
N848        N  0.25492157  0.80013156  0.48121562     0.01800
N849        N  0.21242826  0.69315654  0.46310222     0.01500
C850        C  0.20580163  0.65063677  0.45219498     0.43100
N851        N  0.18510117  0.73013493  0.07757913    -0.25100
C852        C  0.31700548  0.77492167  0.05607528    -0.06000
N853        N  0.23646813  0.80081734  0.09678675    -0.46200
N854        N  0.21861858  0.67863260  0.44191659    -0.46400
C855        C  0.31470948  0.75937969  0.08543651     0.42900
N856        N  0.28739740  0.76841716  0.48095201     0.01800
N857        N  0.21621053  0.69801164  0.07806264    -0.25100
N858        N  0.25854174  0.80318990  0.05189258    -0.25600
N859        N  0.19774722  0.67885226  0.05764972     0.01400
H860        H  0.23819074  0.69429159  0.11891188     0.07300
H861        H  0.17727808  0.63008822  0.49640230     0.07300
N862        N  0.26876747  0.75022505  0.45993804    -0.25700
N863        N  0.16327447  0.70764166  0.48624260    -0.25300
N864        N  0.27264404  0.75372233  0.07428745     0.01800
C865        C  0.24608273  0.82671787  0.45004087     0.43200
C866        C  0.17115458  0.73786934  0.09824592    -0.06500
N867        N  0.19593901  0.67621878  0.48637512    -0.25300
H868        H  0.11704628  0.68910899  0.49638030     0.07300
N869        N  0.26100494  0.82745484  0.47613616    -0.46500
H870        H  0.18111837  0.75232688  0.11806922     0.07300
C871        C  0.20787189  0.65358342  0.08965372     0.43000
C872        C  0.26482232  0.83083626  0.05755700    -0.06000
Co873      Co  0.22887910  0.74202667  0.07665331     0.73800
N874        N  0.13888991  0.70605325  0.06273131    -0.46200
C875        C  0.31390976  0.75989429  0.44929591     0.43300
N876        N  0.28668666  0.74693012  0.09534904    -0.46200
Co877      Co  0.17974633  0.69311715  0.02235016     0.73900
C878        C  0.19079686  0.64891124  0.48168527    -0.06500
C879        C  0.23010236  0.79640451  0.43926236    -0.06100
N880        N  0.28979669  0.77031744  0.05125190    -0.25600
N881        N  0.16570809  0.73126404  0.44245498    -0.46400
H882        H  0.27408961  0.72976593  0.41857771     0.07300
C883        C  0.22367795  0.68414079  0.09916327    -0.06500
Cl884      Cl  0.22647426  0.73961763  0.01928867    -0.49500
C885        C  0.14069413  0.72203790  0.08831777     0.43000
H886        H  0.33603977  0.78826928  0.04154474     0.07200
N887        N  0.19211638  0.65171930  0.06368301    -0.46200
C888        C  0.04441111  0.82930073  0.45412965     0.42900
N889        N  0.50918709  0.78609862  0.46565158     0.01800
C890        C  0.42299188  0.74189490  0.10040674    -0.06100
H891        H  0.03370472  0.78318900  0.12298934     0.07200
C892        C  0.03064364  0.70202023  0.06042235    -0.06500
Co893      Co  0.47598031  0.78653853  0.02388808     0.74200
N894        N  0.50782427  0.78142656  0.07930532    -0.25600
Co895      Co  0.47654149  0.73741729  0.07823905     0.74100
C896        C  0.04374988  0.71688541  0.08998231     0.43000
N897        N  0.50835191  0.71021645  0.48252248     0.01400
N898        N  0.50852501  0.72541695  0.07612484     0.01500
N899        N  0.42243783  0.77336928  0.06432242    -0.46500
H900        H  0.03647905  0.84966764  0.49841869     0.07200
N901        N  0.50829649  0.80062032  0.05892644     0.01800
N902        N  0.44515889  0.69337886  0.07634135     0.01500
C903        C  0.41040539  0.65069373  0.08935621     0.43100
N904        N  0.50835592  0.72916403  0.46211835    -0.25100
C905        C  0.42268870  0.77597357  0.48406158    -0.06000
N906        N  0.02951759  0.80115351  0.44452468    -0.46200
N907        N  0.42524752  0.67893419  0.09833284    -0.46400
C908        C  0.40930851  0.76082309  0.45462155     0.42900
N909        N  0.44395956  0.76779028  0.05882726     0.01800
N910        N  0.44498980  0.69793235  0.46164231    -0.25100
N911        N  0.50947079  0.80280171  0.48891361    -0.25600
N912        N  0.44390373  0.67872577  0.48240435     0.01400
H913        H  0.41972002  0.69396490  0.42021061     0.07300
H914        H  0.41793900  0.62974899  0.04519580     0.07300
N915        N  0.44459082  0.74937800  0.07948993    -0.25700
N916        N  0.50888626  0.70900920  0.05291789    -0.25300
N917        N  0.44539129  0.75443760  0.46575317     0.01800
C918        C  0.04461123  0.82399717  0.09336020     0.43200
C919        C  0.02969877  0.73677214  0.44314874    -0.06500
N920        N  0.44477037  0.67640029  0.05332508    -0.25300
H921        H  0.03613017  0.68867449  0.04577892     0.07300
N922        N  0.03088366  0.82603732  0.06733282    -0.46500
H923        H  0.03468745  0.75156057  0.42342928     0.07300
C924        C  0.40893641  0.65337450  0.45027071     0.43000
C925        C  0.03138050  0.83081142  0.48401791    -0.06000
Co926      Co  0.47701410  0.74197313  0.46326115     0.73800
N927        N  0.02912157  0.70424213  0.47858484    -0.46200
C928        C  0.40838331  0.75772754  0.09022614     0.43300
N929        N  0.42463646  0.74814095  0.44470303    -0.46200
Co930      Co  0.47701577  0.69397302  0.01780592     0.73900
C931        C  0.42313277  0.64880553  0.05928607    -0.06500
C932        C  0.02944686  0.79346488  0.10322063    -0.06100
N933        N  0.44506798  0.77095797  0.48888725    -0.25600
N934        N  0.02858999  0.72969939  0.09998201    -0.46400
H935        H  0.41842528  0.72748831  0.12040082     0.07300
C936        C  0.42384930  0.68394458  0.44031053    -0.06500
Cl937      Cl  0.47661062  0.74029908  0.02080751    -0.49500
C938        C  0.04364614  0.72025842  0.45297390     0.43000
H939        H  0.41716531  0.78930342  0.49868797     0.07200
N940        N  0.42241924  0.65165986  0.47657632    -0.46200
C941        C  0.24890150  0.92275362  0.45737852     0.42900
N942        N  0.24161146  0.95798564  0.46964974     0.01800
C943        C  0.28345793  0.54291442  0.10337496    -0.06100
H944        H  0.21791905  0.93182561  0.12260244     0.07200
C945        C  0.13724349  0.93276124  0.06115076    -0.06500
Co946      Co  0.27495605  0.99091009  0.02584605     0.74200
N947        N  0.23897054  0.95841643  0.08172928    -0.25600
Co948      Co  0.22525744  0.98912295  0.08099599     0.74100
C949        C  0.13982824  0.91909700  0.09007421     0.43000
N950        N  0.16620573  0.95757418  0.48758410     0.01400
N951        N  0.18157258  0.95643342  0.07900676     0.01500
N952        N  0.31577062  0.54384843  0.06739985    -0.46500
H953        H  0.27819074  0.93080524  0.50081819     0.07200
N954        N  0.25768355  0.95861649  0.06084953     0.01800
N955        N  0.21306316  0.52150092  0.07974082     0.01500
C956        C  0.20647771  0.55757313  0.09044919     0.43100
N957        N  0.18525296  0.95789832  0.46710711    -0.25100
C958        C  0.31660974  0.54534551  0.48663373    -0.06000
N959        N  0.23558440  0.93766946  0.44817294    -0.46200
N960        N  0.21942102  0.54247430  0.10058909    -0.46400
C961        C  0.31401849  0.55874532  0.45750846     0.42900
N962        N  0.28866946  0.52226676  0.06182523     0.01800
N963        N  0.21581914  0.52112113  0.46601183    -0.25100
N964        N  0.25862284  0.95782979  0.49230372    -0.25600
N965        N  0.19749489  0.52183857  0.48674009     0.01400
H966        H  0.23688046  0.54625967  0.42436560     0.07300
H967        H  0.17774209  0.54916570  0.04653807     0.07300
N968        N  0.26953864  0.52146874  0.08250591    -0.25700
N969        N  0.16421113  0.95589007  0.05633297    -0.25300
N970        N  0.27216608  0.52186090  0.46900996     0.01800
C971        C  0.24897093  0.92321385  0.09207273     0.43200
C972        C  0.17113287  0.93649955  0.44630198    -0.06500
N973        N  0.19634367  0.52163354  0.05671589    -0.25300
H974        H  0.11817745  0.92677660  0.04670977     0.07300
N975        N  0.26424057  0.93770200  0.06608823    -0.46500
H976        H  0.18103986  0.93202480  0.42633839     0.07300
C977        C  0.20680845  0.55660525  0.45429597     0.43000
C978        C  0.26421806  0.93594737  0.48679377    -0.06000
Co979      Co  0.22917588  0.98955210  0.46762190     0.73800
N980        N  0.13890293  0.93647990  0.48180777    -0.46200
C981        C  0.31399327  0.55770498  0.09334046     0.43300
N982        N  0.28594605  0.54292789  0.44801283    -0.46200
Co983      Co  0.18029518  0.98834889  0.02130471     0.73900
C984        C  0.19117292  0.54386246  0.06128889    -0.06500
C985        C  0.23234687  0.93692950  0.10252042    -0.06100
N986        N  0.28950928  0.52247604  0.49171588    -0.25600
N987        N  0.16785542  0.93505966  0.09978306    -0.46400
H988        H  0.27334053  0.54725721  0.12323098     0.07300
C989        C  0.22281579  0.54213530  0.44459036    -0.06500
Cl990      Cl  0.22751606  0.98938793  0.02361592    -0.49500
C991        C  0.14057010  0.92236027  0.45604880     0.43000
H992        H  0.33573954  0.55121605  0.50093097     0.07200
N993        N  0.19142062  0.54297370  0.48060999    -0.46200
C994        C  0.20554960  0.58994260  0.29728972     0.16400
C995        C  0.19971245  0.57731267  0.26735459    -0.32700
C996        C  0.21077862  0.59619282  0.24139599     0.20700
C997        C  0.22708244  0.62635623  0.24500035     0.02900
C998        C  0.23312770  0.63904499  0.27506764    -0.22400
C999        C  0.22181285  0.62009051  0.30111643     0.12100
S1000       S  0.19358667  0.57059223  0.33145422    -0.06100
C1001       C  0.21060871  0.60339954  0.35155961    -0.09500
C1002       C  0.22471945  0.62801205  0.33226399    -0.26100
S1003       S  0.23728119  0.64535912  0.21029481    -0.03300
C1004       C  0.21917024  0.61223329  0.19070283    -0.16800
C1005       C  0.20636625  0.58796700  0.21046196    -0.14800
H1006       H  0.18678423  0.55376763  0.26441164     0.20600
H1007       H  0.24568521  0.66260491  0.27799541     0.16600
H1008       H  0.23675261  0.65041842  0.34051883     0.19100
H1009       H  0.19339910  0.56546835  0.20268484     0.12500
C1010       C  0.37143522  0.74763121  0.29606188     0.16400
C1011       C  0.38170340  0.74613487  0.26607571    -0.33600
C1012       C  0.36566160  0.74678946  0.24007725     0.20700
C1013       C  0.34039364  0.74842604  0.24376293     0.02900
C1014       C  0.32991740  0.74949808  0.27372228    -0.22400
C1015       C  0.34616971  0.74928056  0.29969115     0.12100
S1016       S  0.38843360  0.74872425  0.33052248    -0.06100
C1017       C  0.36127835  0.75164784  0.35045188    -0.09500
C1018       C  0.34018018  0.75149169  0.33055098    -0.26100
S1019       S  0.32491152  0.75031521  0.20938120    -0.03300
C1020       C  0.35300616  0.74926403  0.18931378    -0.16800
C1021       C  0.37290532  0.74702736  0.20909935    -0.14800
H1022       H  0.40165015  0.74518350  0.26311928     0.20600
H1023       H  0.31032172  0.75111691  0.27665328     0.16600
H1024       H  0.32150670  0.75344321  0.33765776     0.19100
H1025       H  0.39214487  0.74620784  0.20179901     0.12500
C1026       C  0.33625649  0.59494586  0.29887121     0.16400
C1027       C  0.32717295  0.58265545  0.26894785    -0.32700
C1028       C  0.34117073  0.60064255  0.24282262     0.20700
C1029       C  0.36251787  0.62979302  0.24624500     0.02900
C1030       C  0.37099597  0.64233494  0.27622216    -0.22400
C1031       C  0.35769805  0.62406140  0.30241317     0.12100
S1032       S  0.32441626  0.57591056  0.33329978    -0.06100
C1033       C  0.34902808  0.60735757  0.35313218    -0.09500
C1034       C  0.36491161  0.63141387  0.33338424    -0.26100
S1035       S  0.37835986  0.64714344  0.21164706    -0.03300
C1036       C  0.35635002  0.61459041  0.19211013    -0.16800
C1037       C  0.33742166  0.59184926  0.21206596    -0.14800
H1038       H  0.31089053  0.55970896  0.26617005     0.20600
H1039       H  0.38816032  0.66493495  0.27902343     0.16600
H1040       H  0.38138865  0.65308707  0.34091187     0.19100
H1041       H  0.32259061  0.56948597  0.20502012     0.12500
C1042       C  0.08587670  0.73576926  0.29746156     0.16400
C1043       C  0.07699773  0.73956744  0.26755424    -0.32700
C1044       C  0.08837710  0.73234801  0.24138339     0.20700
C1045       C  0.10789440  0.72214304  0.24497632     0.02900
C1046       C  0.11693845  0.71861635  0.27477543    -0.22400
C1047       C  0.10537201  0.72552695  0.30087799     0.12100
S1048       S  0.07350580  0.74169758  0.33215776    -0.06100
C1049       C  0.09457032  0.72986156  0.35169645    -0.09500
C1050       C  0.11056616  0.72223546  0.33174697    -0.26100
S1051       S  0.11889160  0.71410183  0.21072901    -0.03300
C1052       C  0.09704996  0.72463841  0.19079900    -0.16800
C1053       C  0.08202318  0.73384518  0.21034784    -0.14800
H1054       H  0.06156376  0.74733647  0.26483784     0.20600
H1055       H  0.13200087  0.71039614  0.27750402     0.16600
H1056       H  0.12437100  0.71353937  0.33917316     0.19100
H1057       H  0.06745981  0.74149033  0.20246142     0.12500
C1058       C  0.09443457  0.85185499  0.24707418     0.16400
C1059       C  0.08618098  0.83943992  0.27726230    -0.32700
C1060       C  0.09537546  0.85855199  0.30307134     0.20700
C1061       C  0.11268003  0.88860276  0.29892992     0.02900
C1062       C  0.12143782  0.90097036  0.26883035    -0.22400
C1063       C  0.11162962  0.88192246  0.24301363     0.12100
S1064       S  0.08301490  0.83271927  0.21274183    -0.06100
C1065       C  0.10109972  0.86560836  0.19242354    -0.09500
C1066       C  0.11578907  0.88992963  0.21183524    -0.26100
S1067       S  0.12068561  0.90815160  0.33287056    -0.03300
C1068       C  0.10029611  0.87555729  0.35329900    -0.16800
C1069       C  0.08820241  0.85089453  0.33416468    -0.14800
H1070       H  0.07233751  0.81597636  0.28041526     0.20600
H1071       H  0.13452898  0.92450644  0.26562500     0.16600
H1072       H  0.12754249  0.91247333  0.20376622     0.19100
H1073       H  0.07492702  0.82853790  0.34243052     0.12500
C1074       C  0.23219443  0.85496413  0.24564910     0.16400
C1075       C  0.22585801  0.84228703  0.27576848    -0.32700
C1076       C  0.23362032  0.86117970  0.30169618     0.20700
C1077       C  0.24662607  0.89126156  0.29780241     0.02900
C1078       C  0.25260494  0.90389053  0.26772591    -0.22400
C1079       C  0.24528663  0.88505854  0.24185644     0.12100
S1080       S  0.22601768  0.83613218  0.21119142    -0.06100
C1081       C  0.24132988  0.86921193  0.19128458    -0.09500
C1082       C  0.25056475  0.89334249  0.21091146    -0.26100
S1083       S  0.25537463  0.91047062  0.33211222    -0.03300
C1084       C  0.24178548  0.87766381  0.35227696    -0.16800
C1085       C  0.23061369  0.85322190  0.33280803    -0.14800
H1086       H  0.21593729  0.81879513  0.27888075     0.20600
H1087       H  0.26309231  0.92743096  0.26463430     0.16600
H1088       H  0.26136563  0.91597999  0.20318824     0.19100
H1089       H  0.22098417  0.83073559  0.34078549     0.12500
C1090       C  0.24102906  0.86852879  0.65576031     0.03500
C1091       C  0.24148185  0.89243893  0.64053195    -0.12600
C1092       C  0.24494521  0.89592096  0.60779067     0.01000
C1093       C  0.24784889  0.87517784  0.58990622    -0.11100
C1094       C  0.24576607  0.85031483  0.60454214     0.03500
C1095       C  0.24232023  0.84709688  0.63739398    -0.10600
H1096       H  0.23935445  0.90860738  0.65417520     0.09100
H1097       H  0.25027680  0.87765770  0.56457692     0.06700
H1098       H  0.24154689  0.82826929  0.64869230     0.06500
C1099       C  0.24563701  0.87609693  0.88659156     0.03500
C1100       C  0.24519810  0.85239819  0.90226263    -0.12600
C1101       C  0.24764247  0.85229165  0.93510690     0.01000
C1102       C  0.25095419  0.87627837  0.95264229    -0.11100
C1103       C  0.25015963  0.89954624  0.93755221     0.03500
C1104       C  0.24752932  0.89933771  0.90461666    -0.10600
H1105       H  0.24391153  0.83431357  0.88895194     0.09100
H1106       H  0.25259386  0.87610450  0.97804799     0.06700
H1107       H  0.24705231  0.91744454  0.89306642     0.06500
C1108       C  0.09420226  0.87335864  0.88844912     0.03500
C1109       C  0.07042619  0.85071925  0.90509746    -0.12600
C1110       C  0.06860023  0.85201755  0.93816252     0.01000
C1111       C  0.09096081  0.87588935  0.95451174    -0.11100
C1112       C  0.11553796  0.89749928  0.93830254     0.03500
C1113       C  0.11680663  0.89623950  0.90549217    -0.10600
H1114       H  0.05291732  0.83265608  0.89238449     0.09100
H1115       H  0.09002802  0.87684568  0.97992770     0.06700
H1116       H  0.13568440  0.91330756  0.89314335     0.06500
C1117       C  0.09703671  0.86766382  0.65748845     0.03500
C1118       C  0.11833678  0.89242165  0.64099090    -0.12600
C1119       C  0.11559480  0.89553158  0.60846305     0.01000
C1120       C  0.09134988  0.87359120  0.59222597    -0.11100
C1121       C  0.07068728  0.84816719  0.60805984     0.03500
C1122       C  0.07371017  0.84538045  0.64054504    -0.10600
H1123       H  0.13700778  0.90945974  0.65344705     0.09100
H1124       H  0.08922838  0.87567669  0.56713770     0.06700
H1125       H  0.05713429  0.82619430  0.65288293     0.06500
C1126       C  0.09176899  0.71776746  0.65508915     0.03500
C1127       C  0.06807236  0.71678112  0.63864620    -0.12600
C1128       C  0.06654146  0.71439693  0.60560102     0.01000
C1129       C  0.08882107  0.71296691  0.58887193    -0.11100
C1130       C  0.11318350  0.71545448  0.60483934     0.03500
C1131       C  0.11430584  0.71747476  0.63766860    -0.10600
H1132       H  0.05048900  0.71727486  0.65133663     0.09100
H1133       H  0.08810480  0.71173644  0.56340834     0.06700
H1134       H  0.13322966  0.71914474  0.64956689     0.06500
C1135       C  0.09396398  0.72689614  0.88614107     0.03500
C1136       C  0.07006056  0.72449800  0.90328883    -0.12600
C1137       C  0.06804824  0.72025407  0.93595045     0.01000
C1138       C  0.08977589  0.71757840  0.95190030    -0.11100
C1139       C  0.11434779  0.72073064  0.93553099     0.03500
C1140       C  0.11652418  0.72568784  0.90274925    -0.10600
H1141       H  0.05246102  0.72541661  0.89122305     0.09100
H1142       H  0.08823901  0.71449570  0.97719105     0.06700
H1143       H  0.13567577  0.72831062  0.89034866     0.06500
C1144       C  0.35562316  0.60770534  0.88792536     0.03500
C1145       C  0.33452457  0.58504099  0.90681815    -0.12600
C1146       C  0.33892536  0.58380386  0.93920988     0.01000
C1147       C  0.36461666  0.60575674  0.95318207    -0.11100
C1148       C  0.38527926  0.62941565  0.93503914     0.03500
C1149       C  0.38087691  0.63014228  0.90246830    -0.10600
H1150       H  0.31455751  0.56795712  0.89625399     0.09100
H1151       H  0.36783035  0.60520381  0.97829086     0.06700
H1152       H  0.39753304  0.64791832  0.88851312     0.06500
C1153       C  0.35737732  0.61082963  0.65721877     0.03500
C1154       C  0.38139393  0.63170569  0.63940235    -0.12600
C1155       C  0.38363894  0.62764801  0.60694320     0.01000
C1156       C  0.36163600  0.60247566  0.59216817    -0.11100
C1157       C  0.33691919  0.58222316  0.60924571     0.03500
C1158       C  0.33497527  0.58646456  0.64156132    -0.10600
H1159       H  0.39874351  0.65093013  0.65081672     0.09100
H1160       H  0.36295208  0.59942853  0.56713490     0.06700
H1161       H  0.31574837  0.57067809  0.65443495     0.06500
C1162       C  0.35588231  0.75136378  0.65378165     0.03500
C1163       C  0.33466420  0.75351958  0.63576066    -0.12600
C1164       C  0.33782654  0.75781173  0.60302365     0.01000
C1165       C  0.36262478  0.76005326  0.58794356    -0.11100
C1166       C  0.38331984  0.75652356  0.60528754     0.03500
C1167       C  0.37973938  0.75206559  0.63797425    -0.10600
H1168       H  0.31580313  0.75256643  0.64717590     0.09100
H1169       H  0.36511341  0.76315325  0.56267734     0.06700
H1170       H  0.39586921  0.74938282  0.65094013     0.06500
C1171       C  0.36032803  0.75438701  0.88529207     0.03500
C1172       C  0.38279198  0.75495055  0.90370178    -0.12600
C1173       C  0.38355565  0.75884477  0.93645654     0.01000
C1174       C  0.36132330  0.76167123  0.95121831    -0.11100
C1175       C  0.33792938  0.75951662  0.93352606     0.03500
C1176       C  0.33769361  0.75631280  0.90072883    -0.10600
H1177       H  0.40013317  0.75278308  0.89260369     0.09100
H1178       H  0.36144982  0.76407491  0.97654892     0.06700
H1179       H  0.32000248  0.75589951  0.88747723     0.06500
C1180       C  0.20801221  0.60368039  0.88752476     0.03500
C1181       C  0.20773127  0.62677008  0.90369349    -0.12600
C1182       C  0.20549425  0.62615325  0.93674267     0.01000
C1183       C  0.20422745  0.60256916  0.95363662    -0.11100
C1184       C  0.20624658  0.58036114  0.93774646     0.03500
C1185       C  0.20764278  0.58082589  0.90479653    -0.10600
H1186       H  0.20820810  0.64465092  0.89054392     0.09100
H1187       H  0.20315216  0.60223713  0.97911026     0.06700
H1188       H  0.20862674  0.56334714  0.89248246     0.06500
C1189       C  0.21518670  0.60968481  0.65704570     0.03500
C1190       C  0.21216497  0.58519457  0.64070460    -0.12600
C1191       C  0.20676796  0.58232412  0.60815205     0.01000
C1192       C  0.20391986  0.60399533  0.59187342    -0.11100
C1193       C  0.20801814  0.62912472  0.60760426     0.03500
C1194       C  0.21377095  0.63186199  0.64016379    -0.10600
H1195       H  0.21392713  0.56827756  0.65338451     0.09100
H1196       H  0.20000613  0.60205518  0.56674293     0.06700
H1197       H  0.21619878  0.65085561  0.65262482     0.06500
C1198       C  0.24628046  0.82706550  0.58589769     0.42900
N1199       N  0.24006487  0.78495377  0.57390887     0.01800
C1200       C  0.28244530  0.74301618  0.93916033    -0.06100
H1201       H  0.21584317  0.78704297  0.91991891     0.07200
C1202       C  0.13590422  0.70397733  0.98218650    -0.06500
Co1203     Co  0.27288605  0.78594093  0.51607843     0.74200
N1204       N  0.23678566  0.78159859  0.96086591    -0.25600
Co1205     Co  0.22411435  0.73733099  0.96174513     0.74100
C1206       C  0.13796245  0.71939102  0.95273913     0.43000
N1207       N  0.16532118  0.70969482  0.55617455     0.01400
N1208       N  0.18018936  0.72529405  0.96391703     0.01500
N1209       N  0.31421625  0.77411450  0.97547670    -0.46500
H1210       H  0.27571383  0.84875915  0.54242617     0.07200
N1211       N  0.25509178  0.80020067  0.98184039     0.01800
N1212       N  0.21156661  0.69298755  0.96404609     0.01500
C1213       C  0.20490627  0.65032766  0.95352432     0.43100
N1214       N  0.18395602  0.72827412  0.57689532    -0.25100
C1215       C  0.31678196  0.77485626  0.55586047    -0.06000
N1216       N  0.23340806  0.79888616  0.59526014    -0.46200
N1217       N  0.21776121  0.67828322  0.94309467    -0.46400
C1218       C  0.31451991  0.75910797  0.58509332     0.42900
N1219       N  0.28694405  0.76794239  0.98126395     0.01800
N1220       N  0.21637187  0.69756872  0.57757245    -0.25100
N1221       N  0.25706035  0.80230301  0.55121034    -0.25600
N1222       N  0.19831523  0.67826453  0.55701229     0.01400
H1223       H  0.23747642  0.69432666  0.61942891     0.07300
H1224       H  0.17638759  0.63013132  0.99783975     0.07300
N1225       N  0.26806687  0.74969517  0.96048062    -0.25700
N1226       N  0.16314474  0.70868309  0.98703762    -0.25300
N1227       N  0.27238725  0.75366455  0.57405280     0.01800
C1228       C  0.24600526  0.82664566  0.95083227     0.43200
C1229       C  0.16915893  0.73472722  0.59788571    -0.06500
N1230       N  0.19497033  0.67623661  0.98736248    -0.25300
H1231       H  0.11694860  0.69070709  0.99685147     0.07300
N1232       N  0.26118152  0.82751518  0.97674772    -0.46500
H1233       H  0.17851889  0.74875079  0.61813882     0.07300
C1234       C  0.20791902  0.65338177  0.59018779     0.43000
C1235       C  0.26199284  0.82955655  0.55655574    -0.06000
Co1236     Co  0.22823208  0.74121555  0.57601182     0.73800
N1237       N  0.13780600  0.70291512  0.56178420    -0.46200
C1238       C  0.31288526  0.75913692  0.94920629     0.43300
N1239       N  0.28644517  0.74668156  0.59496494    -0.46200
Co1240     Co  0.18009263  0.69224447  0.52143258     0.73900
C1241       C  0.18981474  0.64883965  0.98293854    -0.06500
C1242       C  0.22995435  0.79635148  0.94013001    -0.06100
N1243       N  0.28956757  0.77036790  0.55108433    -0.25600
N1244       N  0.16600676  0.73196503  0.94279426    -0.46400
H1245       H  0.27278225  0.72904300  0.91892780     0.07300
C1246       C  0.22352338  0.68398080  0.59933694    -0.06500
Cl1247     Cl  0.22641540  0.73916193  0.51858785    -0.49500
C1248       C  0.13871311  0.71806978  0.58774792     0.43000
H1249       H  0.33579410  0.78809675  0.54126022     0.07200
N1250       N  0.19262336  0.65122021  0.56367168    -0.46200
C1251       C  0.04383230  0.82812868  0.95569067     0.42900
N1252       N  0.50804422  0.78781675  0.96531030     0.01800
C1253       C  0.42317008  0.74093670  0.60002891    -0.06100
H1254       H  0.03495849  0.78285074  0.62041212     0.07200
C1255       C  0.02888481  0.70017948  0.55892576    -0.06500
Co1256     Co  0.47725078  0.78583675  0.52405128     0.74200
N1257       N  0.50873164  0.77981331  0.57932474    -0.25600
Co1258     Co  0.47670893  0.73611687  0.57813027     0.74100
C1259       C  0.04228576  0.71460198  0.58856652     0.43000
N1260       N  0.50957486  0.71316215  0.98297044     0.01400
N1261       N  0.50808446  0.72319864  0.57572024     0.01500
N1262       N  0.42296105  0.77262634  0.56406078    -0.46500
H1263       H  0.03617948  0.84866172  0.00002900     0.07200
N1264       N  0.50957555  0.79928410  0.55912134     0.01800
N1265       N  0.44458447  0.69247886  0.57612345     0.01500
C1266       C  0.40837866  0.65050548  0.58856079     0.43100
N1267       N  0.50912091  0.73185574  0.96253045    -0.25100
C1268       C  0.42066276  0.77483938  0.98418354    -0.06000
N1269       N  0.02870578  0.80001680  0.94609205    -0.46200
N1270       N  0.42420539  0.67857916  0.59782661    -0.46400
C1271       C  0.40744549  0.75930662  0.95487130     0.42900
N1272       N  0.44482544  0.76740093  0.55895961     0.01800
N1273       N  0.44587354  0.69904724  0.96173681    -0.25100
N1274       N  0.50792906  0.80427988  0.98859261    -0.25600
N1275       N  0.44517052  0.68006617  0.98255472     0.01400
H1276       H  0.42064602  0.69452559  0.92010916     0.07300
H1277       H  0.41501760  0.62897580  0.54435832     0.07300
N1278       N  0.44521264  0.74881840  0.57956216    -0.25700
N1279       N  0.50794669  0.70650012  0.55254284    -0.25300
N1280       N  0.44439737  0.75442258  0.96582974     0.01800
C1281       C  0.04614996  0.82390811  0.59110588     0.43200
C1282       C  0.02940096  0.73651224  0.94352964    -0.06500
N1283       N  0.44359630  0.67528299  0.55304995    -0.25300
H1284       H  0.03363124  0.68631108  0.54424512     0.07300
N1285       N  0.03216224  0.82633640  0.56553078    -0.46500
H1286       H  0.03363196  0.75088318  0.92357482     0.07300
C1287       C  0.41067796  0.65420977  0.95018118     0.43000
C1288       C  0.03083202  0.82976814  0.98558329    -0.06000
Co1289     Co  0.47690990  0.74333673  0.96333811     0.73800
N1290       N  0.03021385  0.70479322  0.97913543    -0.46200
C1291       C  0.40838569  0.75656327  0.58963864     0.43300
N1292       N  0.42341703  0.74737150  0.94488763    -0.46200
Co1293     Co  0.47586446  0.69198201  0.51753153     0.73900
C1294       C  0.42102142  0.64810323  0.55866418    -0.06500
C1295       C  0.03073379  0.79335606  0.60084376    -0.06100
N1296       N  0.44362498  0.77075194  0.98890592    -0.25600
N1297       N  0.02791486  0.72826316  0.59866164    -0.46400
H1298       H  0.41816137  0.72607180  0.61967439     0.07300
C1299       C  0.42500069  0.68472856  0.94025555    -0.06500
Cl1300     Cl  0.47671494  0.73897143  0.52071564    -0.49500
C1301       C  0.04394971  0.72054537  0.95306570     0.43000
H1302       H  0.41464871  0.78780767  0.99878670     0.07200
N1303       N  0.42416403  0.65280766  0.97663513    -0.46200
C1304       C  0.25048986  0.92343600  0.95588023     0.42900
N1305       N  0.24278098  0.95838511  0.96807237     0.01800
C1306       C  0.28172456  0.54241386  0.60364326    -0.06100
H1307       H  0.21468179  0.93071890  0.62342377     0.07200
C1308       C  0.13653292  0.93500609  0.56247541    -0.06500
Co1309     Co  0.27377160  0.98989397  0.52739597     0.74200
N1310       N  0.23703893  0.95783958  0.58320093    -0.25600
Co1311     Co  0.22486358  0.98972607  0.58243057     0.74100
C1312       C  0.13867125  0.92136136  0.59163865     0.43000
N1313       N  0.16656683  0.95632570  0.98647631     0.01400
N1314       N  0.18080889  0.95808484  0.58052855     0.01500
N1315       N  0.31390929  0.54357111  0.56734709    -0.46500
H1316       H  0.28004616  0.93198150  0.99921460     0.07200
N1317       N  0.25542123  0.95746632  0.56225890     0.01800
N1318       N  0.21133991  0.52098225  0.58005253     0.01500
C1319       C  0.20506747  0.55709748  0.59125218     0.43100
N1320       N  0.18555971  0.95698839  0.96569381    -0.25100
C1321       C  0.31856552  0.54616247  0.98690493    -0.06000
N1322       N  0.23680960  0.93798942  0.94669695    -0.46200
N1323       N  0.21782292  0.54178930  0.60112513    -0.46400
C1324       C  0.31590984  0.55971484  0.95792118     0.42900
N1325       N  0.28680725  0.52195715  0.56184889     0.01800
N1326       N  0.21776814  0.52177311  0.96600119    -0.25100
N1327       N  0.26010942  0.95866553  0.99065349    -0.25600
N1328       N  0.19929215  0.52211159  0.98679977     0.01400
H1329       H  0.23879802  0.54763967  0.92467046     0.07300
H1330       H  0.17648174  0.54932225  0.54730124     0.07300
N1331       N  0.26773739  0.52104000  0.58269703    -0.25700
N1332       N  0.16374043  0.95775134  0.55763662    -0.25300
N1333       N  0.27421069  0.52255247  0.96909056     0.01800
C1334       C  0.24476265  0.92095684  0.59259587     0.43200
C1335       C  0.17128662  0.93551656  0.94486593    -0.06500
N1336       N  0.19475416  0.52142538  0.55704363    -0.25300
H1337       H  0.11762754  0.92918787  0.54782447     0.07300
N1338       N  0.26059910  0.93555888  0.56694705    -0.46500
H1339       H  0.18101901  0.93119243  0.92463500     0.07300
C1340       C  0.20844159  0.55730926  0.95504686     0.43000
C1341       C  0.26594334  0.93693561  0.98518023    -0.06000
Co1342     Co  0.22952075  0.98927971  0.96627963     0.73800
N1343       N  0.13933178  0.93495939  0.98105474    -0.46200
C1344       C  0.31220436  0.55730474  0.59343544     0.43300
N1345       N  0.28790747  0.54380566  0.94829912    -0.46200
Co1346     Co  0.18046499  0.98988558  0.52226903     0.73900
C1347       C  0.18979979  0.54376085  0.56191659    -0.06500
C1348       C  0.22928142  0.93572449  0.60351658    -0.06100
N1349       N  0.29153846  0.52310019  0.99178176    -0.25600
N1350       N  0.16669102  0.93691519  0.60142352    -0.46400
H1351       H  0.27170041  0.54668124  0.62364014     0.07300
C1352       C  0.22467106  0.54310828  0.94492531    -0.06500
Cl1353     Cl  0.22708539  0.98979463  0.52493156    -0.49500
C1354       C  0.14077143  0.92090681  0.95516707     0.43000
H1355       H  0.33767698  0.55210244  0.00126119     0.07200
N1356       N  0.19303857  0.54317829  0.98112120    -0.46200
C1357       C  0.20113301  0.58930698  0.79838388     0.16400
C1358       C  0.19365578  0.57696753  0.76830479    -0.32700
C1359       C  0.20745551  0.59539632  0.74244172     0.20700
C1360       C  0.22792180  0.62484777  0.74625935     0.02900
C1361       C  0.23565855  0.63717971  0.77646271    -0.22400
C1362       C  0.22159989  0.61874653  0.80239511     0.12100
S1363       S  0.18650915  0.57051498  0.83254184    -0.06100
C1364       C  0.20805529  0.60264163  0.85271692    -0.09500
C1365       C  0.22554454  0.62660706  0.83360417    -0.26100
S1366       S  0.24089400  0.64368668  0.71160110    -0.03300
C1367       C  0.21846535  0.61146039  0.69179559    -0.16800
C1368       C  0.20219184  0.58756046  0.71138969    -0.14800
H1369       H  0.17749245  0.55403185  0.76517433     0.20600
H1370       H  0.25153774  0.66019523  0.77958232     0.16600
H1371       H  0.24064843  0.64842847  0.84211720     0.19100
H1372       H  0.18642711  0.56576881  0.70331828     0.12500
C1373       C  0.37399539  0.75362544  0.79579825     0.16400
C1374       C  0.38603363  0.75570085  0.76583157    -0.33600
C1375       C  0.36809975  0.75162429  0.73976975     0.20700
C1376       C  0.33946209  0.74560024  0.74334963     0.02900
C1377       C  0.32737152  0.74341264  0.77335488    -0.22400
C1378       C  0.34537114  0.74764059  0.79944388     0.12100
S1379       S  0.39233797  0.75848301  0.83023642    -0.06100
C1380       C  0.36115642  0.75251085  0.85026206    -0.09500
C1381       C  0.33781182  0.74684772  0.83047388    -0.26100
S1382       S  0.32167445  0.74208263  0.70873854    -0.03300
C1383       C  0.35326449  0.74901221  0.68884177    -0.16800
C1384       C  0.37615145  0.75360012  0.70879518    -0.14800
H1385       H  0.40847456  0.76055469  0.76295247     0.20600
H1386       H  0.30503354  0.73890349  0.77622996     0.16600
H1387       H  0.31628242  0.74228118  0.83798816     0.19100
H1388       H  0.39796679  0.75899265  0.70146161     0.12500
C1389       C  0.33945323  0.59363126  0.79903044     0.16400
C1390       C  0.33084411  0.58099031  0.76919636    -0.32700
C1391       C  0.34304072  0.59937604  0.74294204     0.20700
C1392       C  0.36237989  0.62914186  0.74616361     0.02900
C1393       C  0.37054461  0.64192803  0.77609185    -0.22400
C1394       C  0.35890270  0.62336984  0.80241049     0.12100
S1395       S  0.32898447  0.57458489  0.83354272    -0.06100
C1396       C  0.35138254  0.60693239  0.85319155    -0.09500
C1397       C  0.36571620  0.63119690  0.83337739    -0.26100
S1398       S  0.37605204  0.64717434  0.71128394    -0.03300
C1399       C  0.35579126  0.61412946  0.69195822    -0.16800
C1400       C  0.33908564  0.59068108  0.71214598    -0.14800
H1401       H  0.31606567  0.55763998  0.76655416     0.20600
H1402       H  0.38607172  0.66508725  0.77873353     0.16600
H1403       H  0.38063775  0.65337648  0.84097352     0.19100
H1404       H  0.32567865  0.56804511  0.70506107     0.12500
C1405       C  0.08394894  0.73314440  0.79664892     0.16400
C1406       C  0.07381881  0.73508727  0.76668258    -0.32700
C1407       C  0.08531389  0.72777330  0.74064721     0.20700
C1408       C  0.10610547  0.71923616  0.74443208     0.02900
C1409       C  0.11638512  0.71756019  0.77427668    -0.22400
C1410       C  0.10471870  0.72456056  0.80026620     0.12100
S1411       S  0.07166255  0.73938652  0.83126415    -0.06100
C1412       C  0.09439386  0.72980824  0.85114441    -0.09500
C1413       C  0.11094493  0.72278817  0.83124831    -0.26100
S1414       S  0.11720825  0.71099834  0.71034387    -0.03300
C1415       C  0.09378853  0.71930464  0.69011745    -0.16800
C1416       C  0.07807912  0.72783167  0.70958084    -0.14800
H1417       H  0.05739648  0.74156478  0.76384257     0.20600
H1418       H  0.13248084  0.71066065  0.77714032     0.16600
H1419       H  0.12581634  0.71543084  0.83881128     0.19100
H1420       H  0.06255974  0.73422967  0.70164571     0.12500
C1421       C  0.09026441  0.85131376  0.74696058     0.16400
C1422       C  0.08246138  0.83861377  0.77710238    -0.32700
C1423       C  0.09037831  0.85756060  0.80303720     0.20700
C1424       C  0.10562472  0.88774311  0.79900188     0.02900
C1425       C  0.11354836  0.90039158  0.76897360    -0.22400
C1426       C  0.10546256  0.88150087  0.74311329     0.12100
S1427       S  0.08139824  0.83233135  0.71239806    -0.06100
C1428       C  0.09810670  0.86546291  0.69238059    -0.09500
C1429       C  0.11020818  0.88973423  0.71204953    -0.26100
S1430       S  0.11329639  0.90707022  0.83307223    -0.03300
C1431       C  0.09584509  0.87421685  0.85346213    -0.16800
C1432       C  0.08454643  0.84961574  0.83425251    -0.14800
H1433       H  0.07041826  0.81502010  0.78016525     0.20600
H1434       H  0.12526287  0.92398680  0.76588340     0.16600
H1435       H  0.12077387  0.91231763  0.70414867     0.19100
H1436       H  0.07318358  0.82716332  0.84263018     0.12500
C1437       C  0.23403537  0.85288919  0.74526661     0.16400
C1438       C  0.22839669  0.84060293  0.77558438    -0.32700
C1439       C  0.23717794  0.85989276  0.80126718     0.20700
C1440       C  0.25103096  0.88998749  0.79694921     0.02900
C1441       C  0.25672725  0.90223094  0.76671919    -0.22400
C1442       C  0.24781969  0.88299796  0.74110948     0.12100
S1443       S  0.22515613  0.83351604  0.71091373    -0.06100
C1444       C  0.23992230  0.86641004  0.69067121    -0.09500
C1445       C  0.25129171  0.89085626  0.71004137    -0.26100
S1446       S  0.25999953  0.90967248  0.83094597    -0.03300
C1447       C  0.24501757  0.87704988  0.85161325    -0.16800
C1448       C  0.23360030  0.85231421  0.83251732    -0.14800
H1449       H  0.21760510  0.81707850  0.77900856     0.20600
H1450       H  0.26754143  0.92575206  0.76329709     0.16600
H1451       H  0.26203458  0.91338117  0.70194096     0.19100
H1452       H  0.22300680  0.82987464  0.84086741     0.12500
C1453       C  0.74490371  0.37066326  0.15666952     0.03500
C1454       C  0.74436854  0.39408410  0.14147129    -0.12600
C1455       C  0.74689559  0.39712587  0.10869761     0.01000
C1456       C  0.75054615  0.37694079  0.09067092    -0.11100
C1457       C  0.74995953  0.35281909  0.10525344     0.03500
C1458       C  0.74728369  0.34985670  0.13816000    -0.10600
H1459       H  0.74286185  0.41063536  0.15500028     0.09100
H1460       H  0.75219813  0.37912509  0.06527399     0.06700
H1461       H  0.74692016  0.33114935  0.14924473     0.06500
C1462       C  0.74266065  0.37527623  0.38743411     0.03500
C1463       C  0.74228051  0.35152693  0.40290569    -0.12600
C1464       C  0.74545503  0.35151643  0.43561997     0.01000
C1465       C  0.74894673  0.37547097  0.45333438    -0.11100
C1466       C  0.74780970  0.39868263  0.43852223     0.03500
C1467       C  0.74464898  0.39845625  0.40561751    -0.10600
H1468       H  0.73958681  0.33289595  0.38952959     0.09100
H1469       H  0.75108486  0.37535023  0.47868136     0.06700
H1470       H  0.74442756  0.41674240  0.39418613     0.06500
C1471       C  0.59732441  0.37237327  0.38755761     0.03500
C1472       C  0.57284357  0.35002303  0.40358066    -0.12600
C1473       C  0.56979240  0.35163901  0.43641507     0.01000
C1474       C  0.59153399  0.37554421  0.45324873    -0.11100
C1475       C  0.61662397  0.39706659  0.43778987     0.03500
C1476       C  0.61923109  0.39542945  0.40512674    -0.10600
H1477       H  0.55573217  0.33192554  0.39052215     0.09100
H1478       H  0.58964559  0.37669404  0.47853167     0.06700
H1479       H  0.63854460  0.41238468  0.39328440     0.06500
C1480       C  0.59859380  0.36647945  0.15696832     0.03500
C1481       C  0.61969298  0.39126115  0.14042084    -0.12600
C1482       C  0.61599320  0.39517710  0.10833885     0.01000
C1483       C  0.59111976  0.37386826  0.09242984    -0.11100
C1484       C  0.57060975  0.34836918  0.10822438     0.03500
C1485       C  0.57442113  0.34490743  0.14040412    -0.10600
H1486       H  0.63898124  0.40775711  0.15254442     0.09100
H1487       H  0.58837596  0.37647664  0.06759419     0.06700
H1488       H  0.55794978  0.32572226  0.15282370     0.06500
C1489       C  0.59555626  0.22504512  0.15441197     0.03500
C1490       C  0.57130070  0.22290190  0.13818322    -0.12600
C1491       C  0.56894684  0.21876359  0.10530732     0.01000
C1492       C  0.59107773  0.21699995  0.08865156    -0.11100
C1493       C  0.61602857  0.22076000  0.10442101     0.03500
C1494       C  0.61797504  0.22455142  0.13706747    -0.10600
H1495       H  0.55386214  0.22353326  0.15108550     0.09100
H1496       H  0.58967024  0.21431495  0.06332561     0.06700
H1497       H  0.63722321  0.22707418  0.14906320     0.06500
C1498       C  0.59656790  0.23028143  0.38495673     0.03500
C1499       C  0.57235513  0.22765659  0.40154456    -0.12600
C1500       C  0.56906448  0.22170195  0.43393157     0.01000
C1501       C  0.58997001  0.21767662  0.45005868    -0.11100
C1502       C  0.61488328  0.22102780  0.43416984     0.03500
C1503       C  0.61810602  0.22741965  0.40166491    -0.10600
H1504       H  0.55551595  0.22963602  0.38908462     0.09100
H1505       H  0.58756247  0.21340380  0.47514875     0.06700
H1506       H  0.63739763  0.23012447  0.38946346     0.06500
C1507       C  0.85674156  0.10686078  0.38988294     0.03500
C1508       C  0.83580805  0.08323566  0.40794994    -0.12600
C1509       C  0.83962368  0.08164780  0.44048053     0.01000
C1510       C  0.86471477  0.10373007  0.45521076    -0.11100
C1511       C  0.88506817  0.12805512  0.43778693     0.03500
C1512       C  0.88101449  0.12951397  0.40538019    -0.10600
H1513       H  0.81659730  0.06568142  0.39674197     0.09100
H1514       H  0.86755423  0.10283292  0.48035490     0.06700
H1515       H  0.89692615  0.14855668  0.39240527     0.06500
C1516       C  0.86038401  0.10989614  0.15889119     0.03500
C1517       C  0.88354285  0.13113580  0.14042758    -0.12600
C1518       C  0.88477553  0.12760306  0.10780770     0.01000
C1519       C  0.86243812  0.10245800  0.09324563    -0.11100
C1520       C  0.83838071  0.08168553  0.11092510     0.03500
C1521       C  0.83761908  0.08537735  0.14362443    -0.10600
H1522       H  0.90095889  0.15061845  0.15137337     0.09100
H1523       H  0.86296915  0.09983081  0.06801650     0.06700
H1524       H  0.81944563  0.06865692  0.15704079     0.06500
C1525       C  0.85699101  0.25400085  0.15403966     0.03500
C1526       C  0.83581727  0.25603687  0.13586030    -0.12600
C1527       C  0.83886818  0.25968906  0.10304360     0.01000
C1528       C  0.86343433  0.26138920  0.08812428    -0.11100
C1529       C  0.88414612  0.25817235  0.10574149     0.03500
C1530       C  0.88081808  0.25444376  0.13855848    -0.10600
H1531       H  0.81689406  0.25499876  0.14726910     0.09100
H1532       H  0.86578557  0.26393454  0.06279203     0.06700
H1533       H  0.89747309  0.25302799  0.15207002     0.06500
C1534       C  0.85867821  0.24987804  0.38537974     0.03500
C1535       C  0.88178644  0.25126605  0.40327355    -0.12600
C1536       C  0.88351449  0.25647786  0.43592712     0.01000
C1537       C  0.86155615  0.25981528  0.45088812    -0.11100
C1538       C  0.83752339  0.25685132  0.43367047     0.03500
C1539       C  0.83630293  0.25201973  0.40106757    -0.10600
H1540       H  0.89908297  0.24934167  0.39166490     0.09100
H1541       H  0.86246107  0.26337521  0.47605987     0.06700
H1542       H  0.81779450  0.24995447  0.38789417     0.06500
C1543       C  0.70967997  0.10429067  0.38803755     0.03500
C1544       C  0.70874022  0.12699090  0.40429290    -0.12600
C1545       C  0.70659564  0.12638235  0.43727052     0.01000
C1546       C  0.70541715  0.10292454  0.45425479    -0.11100
C1547       C  0.70766184  0.08083655  0.43847501     0.03500
C1548       C  0.70963737  0.08158543  0.40550648    -0.10600
H1549       H  0.70874290  0.14472805  0.39137844     0.09100
H1550       H  0.70415770  0.10256579  0.47971960     0.06700
H1551       H  0.71114387  0.06430443  0.39345204     0.06500
C1552       C  0.71684206  0.11223862  0.15700208     0.03500
C1553       C  0.71475689  0.08799990  0.14074087    -0.12600
C1554       C  0.70923866  0.08472422  0.10817580     0.01000
C1555       C  0.70617385  0.10613589  0.09160748    -0.11100
C1556       C  0.70971369  0.13111792  0.10715031     0.03500
C1557       C  0.71488515  0.13391623  0.13972878    -0.10600
H1558       H  0.71711720  0.07144168  0.15336669     0.09100
H1559       H  0.70239289  0.10406654  0.06645496     0.06700
H1560       H  0.71654150  0.15275328  0.15178517     0.06500
C1561       C  0.74999895  0.32946396  0.08640028     0.42900
N1562       N  0.74203660  0.28690510  0.07362438     0.01800
C1563       C  0.78238799  0.24189385  0.43935110    -0.06100
H1564       H  0.71450308  0.28630182  0.42019104     0.07200
C1565       C  0.63595865  0.20352084  0.48099676    -0.06500
Co1566     Co  0.77384657  0.28709227  0.01540235     0.74200
N1567       N  0.73674643  0.28137942  0.46025574    -0.25600
Co1568     Co  0.72439242  0.23722527  0.46115091     0.74100
C1569       C  0.63812837  0.21899352  0.45150343     0.43000
N1570       N  0.66669166  0.21195046  0.05635766     0.01400
N1571       N  0.68037533  0.22498424  0.46306173     0.01500
N1572       N  0.81448016  0.27315744  0.47528413    -0.46500
H1573       H  0.77889306  0.35074260  0.04246857     0.07200
N1574       N  0.75507226  0.30010056  0.48113209     0.01800
N1575       N  0.71208448  0.19301775  0.46367556     0.01500
C1576       C  0.70594197  0.15051976  0.45379283     0.43100
N1577       N  0.68569319  0.23073927  0.07667859    -0.25100
C1578       C  0.81796119  0.27621517  0.05532118    -0.06000
N1579       N  0.73651762  0.30121834  0.09555417    -0.46200
N1580       N  0.71858706  0.17834953  0.44303420    -0.46400
C1581       C  0.81565545  0.26073804  0.08480100     0.42900
N1582       N  0.78739511  0.26790754  0.48072444     0.01800
N1583       N  0.71753284  0.19935778  0.07748199    -0.25100
N1584       N  0.75886274  0.30404782  0.05072847    -0.25600
N1585       N  0.69924626  0.17996366  0.05715465     0.01400
H1586       H  0.73947920  0.19629934  0.11870548     0.07300
H1587       H  0.67735410  0.13038780  0.49802852     0.07300
N1588       N  0.76837053  0.24955863  0.46009985    -0.25700
N1589       N  0.66324087  0.20830385  0.48608235    -0.25300
N1590       N  0.77359887  0.25515179  0.07349700     0.01800
C1591       C  0.74457173  0.32606214  0.45096472     0.43200
C1592       C  0.67153977  0.23839953  0.09719195    -0.06500
N1593       N  0.69551524  0.17631852  0.48700478    -0.25300
H1594       H  0.61693782  0.19026185  0.49558134     0.07300
N1595       N  0.76032950  0.32720065  0.47647010    -0.46500
H1596       H  0.68139915  0.25306313  0.11688129     0.07300
C1597       C  0.70955147  0.15527753  0.08972817     0.43000
C1598       C  0.76482263  0.33158869  0.05650320    -0.06000
Co1599     Co  0.72968474  0.24306822  0.07570997     0.73800
N1600       N  0.63945721  0.20615479  0.06187516    -0.46200
C1601       C  0.81282458  0.25740717  0.44945495     0.43300
N1602       N  0.78762404  0.24839980  0.09464055    -0.46200
Co1603     Co  0.68083059  0.19361937  0.02173032     0.73900
C1604       C  0.69065489  0.14901533  0.48297803    -0.06500
C1605       C  0.72906656  0.29582589  0.44003124    -0.06100
N1606       N  0.79074879  0.27167330  0.05040615    -0.25600
N1607       N  0.66626460  0.23164333  0.44184540    -0.46400
H1608       H  0.77240837  0.22734857  0.41959771     0.07300
C1609       C  0.72512260  0.18587649  0.09890949    -0.06500
Cl1610     Cl  0.72730283  0.24039757  0.01838309    -0.49500
C1611       C  0.64103588  0.22223216  0.08731204     0.43000
H1612       H  0.83700642  0.28942090  0.04074972     0.07200
N1613       N  0.69381346  0.15297952  0.06359368    -0.46200
C1614       C  0.54431476  0.32806988  0.45326030     0.42900
N1615       N  0.00871737  0.28591913  0.46558183     0.01800
C1616       C  0.92359056  0.24227031  0.10052503    -0.06100
H1617       H  0.53466675  0.28329123  0.12031712     0.07200
C1618       C  0.53057356  0.20231640  0.05889394    -0.06500
Co1619     Co  0.97795367  0.28730847  0.02456270     0.74200
N1620       N  0.00904818  0.28103018  0.08006459    -0.25600
Co1621     Co  0.97698068  0.23737200  0.07913353     0.74100
C1622       C  0.54390000  0.21734720  0.08836623     0.43000
N1623       N  0.00993615  0.21123665  0.48362385     0.01400
N1624       N  0.00849858  0.22476486  0.07707426     0.01500
N1625       N  0.92369019  0.27417280  0.06459952    -0.46500
H1626       H  0.53675543  0.34865173  0.49762543     0.07200
N1627       N  0.01018147  0.30045440  0.05959166     0.01800
N1628       N  0.94485005  0.19350391  0.07724523     0.01500
C1629       C  0.90893551  0.15109235  0.08929971     0.43100
N1630       N  0.00930064  0.22976902  0.46310594    -0.25100
C1631       C  0.92126977  0.27356687  0.48346690    -0.06000
N1632       N  0.52895382  0.30006968  0.44342542    -0.46200
N1633       N  0.92435363  0.17921405  0.09876961    -0.46400
C1634       C  0.90815508  0.25797149  0.45408643     0.42900
N1635       N  0.94548006  0.26885297  0.05953130     0.01800
N1636       N  0.94608763  0.19746211  0.46330511    -0.25100
N1637       N  0.00860770  0.30255854  0.48868873    -0.25600
N1638       N  0.94557861  0.17858793  0.48413995     0.01400
H1639       H  0.91964986  0.19301698  0.42289824     0.07300
H1640       H  0.91653911  0.13007607  0.04533817     0.07300
N1641       N  0.94564869  0.25012771  0.08012401    -0.25700
N1642       N  0.00872515  0.20831390  0.05384965    -0.25300
N1643       N  0.94499348  0.25295748  0.46569105     0.01800
C1644       C  0.54567442  0.32448662  0.09143887     0.43200
C1645       C  0.52968494  0.23721545  0.44083988    -0.06500
N1646       N  0.94434377  0.17646807  0.05427696    -0.25300
H1647       H  0.53589773  0.18880900  0.04431683     0.07300
N1648       N  0.53186815  0.32704742  0.06575000    -0.46500
H1649       H  0.53413427  0.25184650  0.42108523     0.07300
C1650       C  0.90987873  0.15290823  0.45326417     0.43000
C1651       C  0.53115838  0.32981771  0.48297622    -0.06000
Co1652     Co  0.97734007  0.24155736  0.46392111     0.73800
N1653       N  0.53044616  0.20548479  0.47644402    -0.46200
C1654       C  0.90906272  0.25807839  0.09014033     0.43300
N1655       N  0.92415708  0.24592000  0.44451177    -0.46200
Co1656     Co  0.97657440  0.19351318  0.01894646     0.73900
C1657       C  0.92205935  0.14908453  0.05965551    -0.06500
C1658       C  0.53047160  0.29391374  0.10084839    -0.06100
N1659       N  0.94414836  0.26938245  0.48859101    -0.25600
N1660       N  0.52895492  0.23045146  0.09817666    -0.46400
H1661       H  0.91848490  0.22739339  0.12017816     0.07300
C1662       C  0.92441810  0.18323660  0.44275230    -0.06500
Cl1663     Cl  0.97716154  0.24036378  0.02170204    -0.49500
C1664       C  0.54443473  0.22146542  0.45057822     0.43000
H1665       H  0.91518420  0.28657619  0.49790281     0.07200
N1666       N  0.92402318  0.15143199  0.47905986    -0.46200
C1667       C  0.74860025  0.42266359  0.45710685     0.42900
N1668       N  0.74170031  0.45807030  0.46955112     0.01800
C1669       C  0.78270209  0.04235339  0.10558157    -0.06100
H1670       H  0.71530623  0.43076678  0.12496265     0.07200
C1671       C  0.63660323  0.43531318  0.06293966    -0.06500
Co1672     Co  0.77327419  0.48939983  0.02848854     0.74200
N1673       N  0.73661493  0.45757042  0.08416486    -0.25600
Co1674     Co  0.72472753  0.48974821  0.08353277     0.74100
C1675       C  0.63882555  0.42124270  0.09173941     0.43000
N1676       N  0.66582559  0.45616386  0.48715797     0.01400
N1677       N  0.68075001  0.45842019  0.08129667     0.01500
N1678       N  0.81442555  0.04302885  0.06902898    -0.46500
H1679       H  0.77737870  0.43003443  0.50088678     0.07200
N1680       N  0.75481753  0.45720414  0.06299702     0.01800
N1681       N  0.71217185  0.02210324  0.08107188     0.01500
C1682       C  0.70712002  0.05911269  0.09159675     0.43100
N1683       N  0.68521600  0.45716536  0.46672226    -0.25100
C1684       C  0.81865834  0.04423888  0.48819874    -0.06000
N1685       N  0.73558588  0.43784137  0.44794182    -0.46200
N1686       N  0.71924907  0.04331364  0.10181274    -0.46400
C1687       C  0.81642286  0.05749695  0.45881955     0.42900
N1688       N  0.78710773  0.02187197  0.06341348     0.01800
N1689       N  0.71811857  0.02174610  0.46735213    -0.25100
N1690       N  0.75846446  0.45764436  0.49233727    -0.25600
N1691       N  0.69956514  0.02223137  0.48792931     0.01400
H1692       H  0.73970178  0.04749511  0.42613356     0.07300
H1693       H  0.67864230  0.05149170  0.04758233     0.07300
N1694       N  0.76824401  0.02124591  0.08436343    -0.25700
N1695       N  0.66373399  0.45832029  0.05847469    -0.25300
N1696       N  0.77416280  0.02165059  0.47068288     0.01800
C1697       C  0.74523601  0.42124530  0.09347359     0.43200
C1698       C  0.67167673  0.43577118  0.44574057    -0.06500
N1699       N  0.69576188  0.02272637  0.05794891    -0.25300
H1700       H  0.61776824  0.42945928  0.04816124     0.07300
N1701       N  0.76055877  0.43573059  0.06765122    -0.46500
H1702       H  0.68202184  0.43170617  0.42589563     0.07300
C1703       C  0.70936286  0.05756602  0.45599720     0.43000
C1704       C  0.76377796  0.43557594  0.48673053    -0.06000
Co1705     Co  0.72888372  0.48924924  0.46793746     0.73800
N1706       N  0.63882021  0.43448311  0.48119627    -0.46200
C1707       C  0.81322143  0.05678691  0.09535388     0.43300
N1708       N  0.78831665  0.04231780  0.44939998    -0.46200
Co1709     Co  0.68076286  0.49080827  0.02346781     0.73900
C1710       C  0.69155254  0.04558678  0.06243569    -0.06500
C1711       C  0.72944143  0.43566437  0.10465054    -0.06100
N1712       N  0.79130582  0.02195016  0.49345447    -0.25600
N1713       N  0.66674657  0.43683276  0.10170769    -0.46400
H1714       H  0.77301375  0.04675940  0.12579133     0.07300
C1715       C  0.72543070  0.04312080  0.44622622    -0.06500
Cl1716     Cl  0.72705704  0.49014279  0.02612713    -0.49500
C1717       C  0.64106225  0.42074934  0.45533452     0.43000
H1718       H  0.83772518  0.04966601  0.50242513     0.07200
N1719       N  0.69364654  0.04350524  0.48199760    -0.46200
C1720       C  0.70686581  0.09109698  0.29851577     0.16400
C1721       C  0.70306677  0.07897270  0.26844839    -0.32700
C1722       C  0.71231851  0.09817073  0.24266512     0.20700
C1723       C  0.72480757  0.12816960  0.24655824     0.02900
C1724       C  0.72875287  0.14039324  0.27676001    -0.22400
C1725       C  0.71943151  0.12108805  0.30263229     0.12100
S1726       S  0.69704588  0.07128349  0.33253048    -0.06100
C1727       C  0.71024640  0.10369671  0.35304671    -0.09500
C1728       C  0.72135226  0.12849546  0.33387700    -0.26100
S1729       S  0.73337432  0.14737505  0.21198425    -0.03300
C1730       C  0.71976316  0.11451953  0.19193760    -0.16800
C1731       C  0.70955662  0.09025502  0.21163710    -0.14800
H1732       H  0.69314979  0.05551493  0.26527436     0.20600
H1733       H  0.73842127  0.16382136  0.27992859     0.16600
H1734       H  0.73090137  0.15080694  0.34222388     0.19100
H1735       H  0.69940220  0.06773147  0.20383367     0.12500
C1736       C  0.86502793  0.23983045  0.29584919     0.16400
C1737       C  0.87191042  0.23414006  0.26566268    -0.33600
C1738       C  0.86226217  0.24355325  0.23965055     0.20700
C1739       C  0.84632193  0.25775098  0.24357426     0.02900
C1740       C  0.83938523  0.26333336  0.27366294    -0.22400
C1741       C  0.84914469  0.25409837  0.29960475     0.12100
S1742       S  0.87546336  0.23121246  0.33051651    -0.06100
C1743       C  0.85828604  0.24710711  0.35042683    -0.09500
C1744       C  0.84516011  0.25825573  0.33064023    -0.26100
S1745       S  0.83683270  0.26767233  0.20929911    -0.03300
C1746       C  0.85464615  0.25270699  0.18901704    -0.16800
C1747       C  0.86714358  0.24059516  0.20843609    -0.14800
H1748       H  0.88447695  0.22316007  0.26259544     0.20600
H1749       H  0.82711073  0.27462901  0.27672764     0.16600
H1750       H  0.83399978  0.26970173  0.33838963     0.19100
H1751       H  0.87905592  0.23004116  0.20029657     0.12500
C1752       C  0.83855807  0.09938529  0.30092308     0.16400
C1753       C  0.82609864  0.09030614  0.27098359    -0.32700
C1754       C  0.84433403  0.10354693  0.24472575     0.20700
C1755       C  0.87340213  0.12517920  0.24821022     0.02900
C1756       C  0.88571128  0.13450482  0.27805602    -0.22400
C1757       C  0.86768685  0.12089407  0.30421289     0.12100
S1758       S  0.82095541  0.08480970  0.33573630    -0.06100
C1759       C  0.85338756  0.10769327  0.35512124    -0.09500
C1760       C  0.87630305  0.12577666  0.33497437    -0.26100
S1761       S  0.89221379  0.13770393  0.21376516    -0.03300
C1762       C  0.86073837  0.11328886  0.19385115    -0.16800
C1763       C  0.83685683  0.09672805  0.21369775    -0.14800
H1764       H  0.80344681  0.07314480  0.26828038     0.20600
H1765       H  0.90856537  0.15109545  0.28077237     0.16600
H1766       H  0.89859739  0.14100761  0.34196437     0.19100
H1767       H  0.81513272  0.08030638  0.20619593     0.12500
C1768       C  0.59094104  0.24253549  0.29594523     0.16400
C1769       C  0.58273835  0.24725457  0.26596516    -0.32700
C1770       C  0.59177341  0.23748436  0.23975561     0.20700
C1771       C  0.60859773  0.22417456  0.24344506     0.02900
C1772       C  0.61708249  0.21987848  0.27321788    -0.22400
C1773       C  0.60771550  0.22915140  0.29931578     0.12100
S1774       S  0.58039440  0.25043051  0.33086058    -0.06100
C1775       C  0.59842059  0.23505139  0.35026129    -0.09500
C1776       C  0.61229004  0.22505112  0.33017991    -0.26100
S1777       S  0.61701147  0.21325943  0.20938936    -0.03300
C1778       C  0.59778522  0.22675941  0.18929488    -0.16800
C1779       C  0.58536725  0.23898424  0.20863136    -0.14800
H1780       H  0.56935492  0.25741777  0.26325472     0.20600
H1781       H  0.62991369  0.20912861  0.27595520     0.16600
H1782       H  0.62384210  0.21389650  0.33759009     0.19100
H1783       H  0.57266120  0.24869630  0.20044931     0.12500
C1784       C  0.59412253  0.34945644  0.24618739     0.16400
C1785       C  0.58630671  0.33682927  0.27638866    -0.32700
C1786       C  0.59492290  0.35588429  0.30232425     0.20700
C1787       C  0.61109559  0.38603153  0.29822469     0.02900
C1788       C  0.61922681  0.39855996  0.26820351    -0.22400
C1789       C  0.61018251  0.37962448  0.24237243     0.12100
S1790       S  0.58371735  0.33057603  0.21152323    -0.06100
C1791       C  0.60079968  0.36379271  0.19163852    -0.09500
C1792       C  0.61428996  0.38793353  0.21137790    -0.26100
S1793       S  0.61897303  0.40557378  0.33213531    -0.03300
C1794       C  0.60020276  0.37289783  0.35264181    -0.16800
C1795       C  0.58850566  0.34815948  0.33354531    -0.14800
H1796       H  0.57341860  0.31327054  0.27947552     0.20600
H1797       H  0.63147228  0.42214486  0.26507131     0.16600
H1798       H  0.62517455  0.41057900  0.20366309     0.19100
H1799       H  0.57616467  0.32575963  0.34196983     0.12500
C1800       C  0.74814959  0.35971075  0.24616110     0.16400
C1801       C  0.75333687  0.35261254  0.27631783    -0.32700
C1802       C  0.74635227  0.36463396  0.30203053     0.20700
C1803       C  0.73458078  0.38277477  0.29801543     0.02900
C1804       C  0.72924868  0.38976024  0.26782014    -0.22400
C1805       C  0.73640457  0.37786008  0.24207941     0.12100
S1806       S  0.75592469  0.34809215  0.21196999    -0.06100
C1807       C  0.74353954  0.36819527  0.19160662    -0.09500
C1808       C  0.73350566  0.38264053  0.21097409    -0.26100
S1809       S  0.72799842  0.39532938  0.33234542    -0.03300
C1810       C  0.74111052  0.37575464  0.35251026    -0.16800
C1811       C  0.75024083  0.36062613  0.33305626    -0.14800
H1812       H  0.76265649  0.33853824  0.27960288     0.20600
H1813       H  0.72020097  0.40406128  0.26451988     0.16600
H1814       H  0.72453469  0.39605270  0.20302411     0.19100
H1815       H  0.75975719  0.34767603  0.34099275     0.12500
C1816       C  0.74393150  0.37036592  0.65715773     0.03500
C1817       C  0.74463338  0.39431715  0.64179832    -0.12600
C1818       C  0.74750725  0.39731906  0.60900808     0.01000
C1819       C  0.75025309  0.37650054  0.59115085    -0.11100
C1820       C  0.74852740  0.35185285  0.60581965     0.03500
C1821       C  0.74538586  0.34889655  0.63879432    -0.10600
H1822       H  0.74377341  0.41125056  0.65531817     0.09100
H1823       H  0.75217804  0.37870676  0.56576964     0.06700
H1824       H  0.74416536  0.32986874  0.65010098     0.06500
C1825       C  0.73882385  0.37456843  0.88818782     0.03500
C1826       C  0.73981403  0.35132068  0.90321475    -0.12600
C1827       C  0.74373816  0.35136739  0.93581167     0.01000
C1828       C  0.74659145  0.37485370  0.95387829    -0.11100
C1829       C  0.74402096  0.39746225  0.93958344     0.03500
C1830       C  0.73990936  0.39709902  0.90678682    -0.10600
H1831       H  0.73777764  0.33311124  0.88952596     0.09100
H1832       H  0.74950639  0.37486737  0.97911471     0.06700
H1833       H  0.73869098  0.41498171  0.89567058     0.06500
C1834       C  0.59593676  0.37621478  0.88930193     0.03500
C1835       C  0.57250889  0.35302234  0.90585404    -0.12600
C1836       C  0.57037818  0.35394966  0.93882192     0.01000
C1837       C  0.59189583  0.37804697  0.95552280    -0.11100
C1838       C  0.61592302  0.40046289  0.93958575     0.03500
C1839       C  0.61762284  0.39959840  0.90676236    -0.10600
H1840       H  0.55549010  0.33443019  0.89342805     0.09100
H1841       H  0.59077991  0.37863213  0.98095751     0.06700
H1842       H  0.63622054  0.41745293  0.89495455     0.06500
C1843       C  0.59381054  0.36812134  0.65778176     0.03500
C1844       C  0.61615303  0.39192215  0.64091973    -0.12600
C1845       C  0.61387678  0.39466883  0.60824542     0.01000
C1846       C  0.58931524  0.37323626  0.59204173    -0.11100
C1847       C  0.56780519  0.34857429  0.60807173     0.03500
C1848       C  0.57004898  0.34628591  0.64073622    -0.10600
H1849       H  0.63525166  0.40867190  0.65296406     0.09100
H1850       H  0.58769082  0.37494288  0.56680047     0.06700
H1851       H  0.55274241  0.32746267  0.65282057     0.06500
C1852       C  0.59388040  0.22128109  0.65359531     0.03500
C1853       C  0.56961308  0.21943959  0.63749969    -0.12600
C1854       C  0.56800901  0.21727862  0.60440672     0.01000
C1855       C  0.59073893  0.21700129  0.58743384    -0.11100
C1856       C  0.61550846  0.22034853  0.60317045     0.03500
C1857       C  0.61688830  0.22239181  0.63594468    -0.10600
H1858       H  0.55161578  0.21882592  0.65051501     0.09100
H1859       H  0.58985769  0.21565833  0.56197635     0.06700
H1860       H  0.63611579  0.22466745  0.64774389     0.06500
C1861       C  0.59271058  0.22266394  0.88475873     0.03500
C1862       C  0.56934545  0.22157980  0.90191306    -0.12600
C1863       C  0.56759884  0.21825026  0.93470029     0.01000
C1864       C  0.58915456  0.21525731  0.95076077    -0.11100
C1865       C  0.61334300  0.21741007  0.93433119     0.03500
C1866       C  0.61502621  0.22111852  0.90140448    -0.10600
H1867       H  0.55202698  0.22297193  0.88979094     0.09100
H1868       H  0.58799073  0.21302884  0.97615077     0.06700
H1869       H  0.63383852  0.22294818  0.88895636     0.06500
C1870       C  0.85603440  0.10683843  0.89037426     0.03500
C1871       C  0.83465390  0.08393154  0.90881147    -0.12600
C1872       C  0.83780060  0.08322263  0.94149953     0.01000
C1873       C  0.86250749  0.10588257  0.95622808    -0.11100
C1874       C  0.88335735  0.12968645  0.93839431     0.03500
C1875       C  0.88018846  0.12996185  0.90560283    -0.10600
H1876       H  0.81545597  0.06624033  0.89773407     0.09100
H1877       H  0.86483342  0.10566195  0.98153814     0.06700
H1878       H  0.89710518  0.14787884  0.89205748     0.06500
C1879       C  0.86070712  0.10923464  0.65941048     0.03500
C1880       C  0.88467002  0.13007621  0.64149931    -0.12600
C1881       C  0.88654503  0.12626765  0.60893527     0.01000
C1882       C  0.86427723  0.10123559  0.59416543    -0.11100
C1883       C  0.83953581  0.08104555  0.61133877     0.03500
C1884       C  0.83794416  0.08512276  0.64375921    -0.10600
H1885       H  0.90222164  0.14917795  0.65287577     0.09100
H1886       H  0.86532000  0.09838500  0.56904538     0.06700
H1887       H  0.81869512  0.06942891  0.65669313     0.06500
C1888       C  0.85678542  0.25223895  0.65395929     0.03500
C1889       C  0.83566163  0.25492283  0.63639481    -0.12600
C1890       C  0.83859147  0.25913739  0.60360659     0.01000
C1891       C  0.86291694  0.26063425  0.58820835    -0.11100
C1892       C  0.88336349  0.25648760  0.60525485     0.03500
C1893       C  0.88022000  0.25241665  0.63795825    -0.10600
H1894       H  0.81718885  0.25442894  0.64827031     0.09100
H1895       H  0.86513965  0.26351278  0.56290412     0.06700
H1896       H  0.89616226  0.24936989  0.65096085     0.06500
C1897       C  0.86356853  0.25821310  0.88475997     0.03500
C1898       C  0.88660261  0.26010237  0.90316932    -0.12600
C1899       C  0.88700051  0.26364807  0.93595414     0.01000
C1900       C  0.86407785  0.26550046  0.95058955    -0.11100
C1901       C  0.84017235  0.26223711  0.93278788     0.03500
C1902       C  0.84015350  0.25886265  0.89999166    -0.10600
H1903       H  0.90439691  0.25872746  0.89202283     0.09100
H1904       H  0.86400387  0.26776928  0.97592169     0.06700
H1905       H  0.82212970  0.25744073  0.88641288     0.06500
C1906       C  0.71083072  0.10538999  0.88658919     0.03500
C1907       C  0.70983605  0.12818061  0.90265024    -0.12600
C1908       C  0.70620451  0.12696375  0.93556019     0.01000
C1909       C  0.70384545  0.10295699  0.95250530    -0.11100
C1910       C  0.70646894  0.08099955  0.93697972     0.03500
C1911       C  0.70968314  0.08222778  0.90413811    -0.10600
H1912       H  0.71085962  0.14633811  0.88956455     0.09100
H1913       H  0.70157366  0.10214104  0.97788680     0.06700
H1914       H  0.71129365  0.06496270  0.89216863     0.06500
C1915       C  0.71697253  0.11155828  0.65577261     0.03500
C1916       C  0.71484177  0.08724614  0.63978320    -0.12600
C1917       C  0.70975571  0.08402200  0.60718756     0.01000
C1918       C  0.70682541  0.10544171  0.59036195    -0.11100
C1919       C  0.71013769  0.13041233  0.60582197     0.03500
C1920       C  0.71517749  0.13324192  0.63842659    -0.10600
H1921       H  0.71693071  0.07065243  0.65271501     0.09100
H1922       H  0.70326723  0.10335592  0.56517291     0.06700
H1923       H  0.71678926  0.15204647  0.65053517     0.06500
C1924       C  0.74863227  0.32846317  0.58685856     0.42900
N1925       N  0.74134897  0.28609099  0.57410004     0.01800
C1926       C  0.78405204  0.24457417  0.93817364    -0.06100
H1927       H  0.71415996  0.28641064  0.92012361     0.07200
C1928       C  0.63609094  0.20248261  0.98135033    -0.06500
Co1929     Co  0.77345913  0.28627363  0.51588702     0.74200
N1930       N  0.73685182  0.28191805  0.95999189    -0.25600
Co1931     Co  0.72485163  0.23788139  0.96085322     0.74100
C1932       C  0.63750709  0.21713227  0.95160390     0.43000
N1933       N  0.66622473  0.21153647  0.55593291     0.01400
N1934       N  0.68048133  0.22502069  0.96309570     0.01500
N1935       N  0.81539445  0.27586917  0.97458385    -0.46500
H1936       H  0.77761741  0.34994544  0.54298439     0.07200
N1937       N  0.75520620  0.30078428  0.98075465     0.01800
N1938       N  0.71276567  0.19376396  0.96333997     0.01500
C1939       C  0.70551689  0.15104259  0.95231321     0.43100
N1940       N  0.68513487  0.23013492  0.57643818    -0.25100
C1941       C  0.81758463  0.27586125  0.55613410    -0.06000
N1942       N  0.73542662  0.30021015  0.59594548    -0.46200
N1943       N  0.71859152  0.17904847  0.94207329    -0.46400
C1944       C  0.81538500  0.26064199  0.58576214     0.42900
N1945       N  0.78796345  0.26928803  0.98025401     0.01800
N1946       N  0.71696527  0.19854522  0.57723175    -0.25100
N1947       N  0.75821028  0.30330955  0.55125176    -0.25600
N1948       N  0.69849501  0.17921249  0.55696339     0.01400
H1949       H  0.73994663  0.19547488  0.61749870     0.07300
H1950       H  0.67709255  0.13076191  0.99668346     0.07300
N1951       N  0.76925301  0.25090248  0.95942458    -0.25700
N1952       N  0.66370908  0.20837084  0.98635945    -0.25300
N1953       N  0.77313182  0.25449152  0.57412273     0.01800
C1954       C  0.74416865  0.32636872  0.95064897     0.43200
C1955       C  0.67099459  0.23823724  0.59644068    -0.06500
N1956       N  0.69625118  0.17698307  0.98670118    -0.25300
H1957       H  0.61727530  0.18871108  0.99598320     0.07300
N1958       N  0.76013618  0.32777984  0.97609440    -0.46500
H1959       H  0.68073803  0.25296653  0.61610046     0.07300
C1960       C  0.70984209  0.15456805  0.58848764     0.43000
C1961       C  0.76372303  0.33073182  0.55701846    -0.06000
Co1962     Co  0.72908910  0.24228489  0.57592657     0.73800
N1963       N  0.63910250  0.20622214  0.56084194    -0.46200
C1964       C  0.81454385  0.26105031  0.94835527     0.43300
N1965       N  0.78727275  0.24806666  0.59547996    -0.46200
Co1966     Co  0.68012426  0.19308380  0.52159295     0.73900
C1967       C  0.69074046  0.14953363  0.98195613    -0.06500
C1968       C  0.72886722  0.29612550  0.93981948    -0.06100
N1969       N  0.79028675  0.27098958  0.55103302    -0.25600
N1970       N  0.66564464  0.23053329  0.94165806    -0.46400
H1971       H  0.77464609  0.23057293  0.91791192     0.07300
C1972       C  0.72518553  0.18507996  0.59799239    -0.06500
Cl1973     Cl  0.72678569  0.23972481  0.51858984    -0.49500
C1974       C  0.64066459  0.22254727  0.58597028     0.43000
H1975       H  0.83662841  0.28917520  0.54160157     0.07200
N1976       N  0.69355508  0.15228723  0.56283220    -0.46200
C1977       C  0.54587927  0.32957212  0.95583914     0.42900
N1978       N  0.00953469  0.28715714  0.96597800     0.01800
C1979       C  0.92254957  0.24004563  0.59985368    -0.06100
H1980       H  0.53289720  0.28328411  0.62042691     0.07200
C1981       C  0.53017716  0.20163150  0.55768948    -0.06500
Co1982     Co  0.97638932  0.28509520  0.52385970     0.74200
N1983       N  0.00804202  0.28023736  0.57971592    -0.25600
Co1984     Co  0.97692434  0.23622410  0.57879380     0.74100
C1985       C  0.54309469  0.21616901  0.58747548     0.43000
N1986       N  0.00883076  0.21176159  0.98382804     0.01400
N1987       N  0.00922853  0.22442559  0.57680546     0.01500
N1988       N  0.92218209  0.27145659  0.56360196    -0.46500
H1989       H  0.53725052  0.34967007  0.99983811     0.07200
N1990       N  0.00858762  0.29933356  0.55915517     0.01800
N1991       N  0.94569897  0.19215651  0.57726792     0.01500
C1992       C  0.91090973  0.14951358  0.59041056     0.43100
N1993       N  0.00847259  0.23038739  0.96325053    -0.25100
C1994       C  0.92394223  0.27856493  0.98409821    -0.06000
N1995       N  0.53090366  0.30163593  0.94559293    -0.46200
N1996       N  0.92570890  0.17780618  0.59923113    -0.46400
C1997       C  0.91068596  0.26361960  0.95450015     0.42900
N1998       N  0.94406094  0.26627320  0.55863072     0.01800
N1999       N  0.94500880  0.19919876  0.96358098    -0.25100
N2000       N  0.01019834  0.30409056  0.98918251    -0.25600
N2001       N  0.94437715  0.18018343  0.98432165     0.01400
H2002       H  0.91832959  0.19488576  0.92330371     0.07300
H2003       H  0.91864709  0.12836830  0.54657511     0.07300
N2004       N  0.94463869  0.24792964  0.57945664    -0.25700
N2005       N  0.00960096  0.20794064  0.55367765    -0.25300
N2006       N  0.94586324  0.25602227  0.96642138     0.01800
C2007       C  0.54365549  0.32415102  0.59098741     0.43200
C2008       C  0.53033931  0.23669657  0.94210670    -0.06500
N2009       N  0.94544921  0.17507428  0.55447186    -0.25300
H2010       H  0.53552321  0.18812973  0.54313060     0.07300
N2011       N  0.53017488  0.32624025  0.56481303    -0.46500
H2012       H  0.53502195  0.25104794  0.92203524     0.07300
C2013       C  0.90819949  0.15471955  0.95378210     0.43000
C2014       C  0.53214284  0.33098194  0.98514815    -0.06000
Co2015     Co  0.97719245  0.24316481  0.96427367     0.73800
N2016       N  0.52984742  0.20439608  0.97776773    -0.46200
C2017       C  0.90769316  0.25555321  0.58923444     0.43300
N2018       N  0.92554451  0.25031707  0.94499687    -0.46200
Co2019     Co  0.97761341  0.19252915  0.51885570     0.73900
C2020       C  0.92380452  0.14749244  0.56052585    -0.06500
C2021       C  0.52889534  0.29354078  0.60045545    -0.06100
N2022       N  0.94577763  0.27279751  0.98938608    -0.25600
N2023       N  0.52811219  0.22924081  0.59730804    -0.46400
H2024       H  0.91776635  0.22552997  0.61978711     0.07300
C2025       C  0.92305831  0.18508829  0.94317742    -0.06500
Cl2026     Cl  0.97713356  0.23888490  0.52136894    -0.49500
C2027       C  0.54410644  0.21992864  0.95178892     0.43000
H2028       H  0.91882506  0.29237732  0.99841559     0.07200
N2029       N  0.92249740  0.15315862  0.97938869    -0.46200
C2030       C  0.74522167  0.42140766  0.95853018     0.42900
N2031       N  0.74055447  0.45820122  0.97061411     0.01800
C2032       C  0.78388618  0.04209788  0.60556946    -0.06100
H2033       H  0.71579009  0.43067997  0.62445178     0.07200
C2034       C  0.63565605  0.43335763  0.56196030    -0.06500
Co2035     Co  0.77332405  0.48957720  0.52780554     0.74200
N2036       N  0.73683094  0.45719591  0.58345558    -0.25600
Co2037     Co  0.72379546  0.48843663  0.58267583     0.74100
C2038       C  0.63757738  0.41969095  0.59113466     0.43000
N2039       N  0.66634492  0.45888909  0.98848008     0.01400
N2040       N  0.67985797  0.45625771  0.58030520     0.01500
N2041       N  0.81580154  0.04266379  0.56930335    -0.46500
H2042       H  0.77427422  0.42810453  0.00191552     0.07200
N2043       N  0.75538521  0.45717587  0.56249775     0.01800
N2044       N  0.71325619  0.02145485  0.58108077     0.01500
C2045       C  0.70792082  0.05840299  0.59098611     0.43100
N2046       N  0.68532696  0.45943684  0.96779419    -0.25100
C2047       C  0.81675401  0.04527035  0.98869019    -0.06000
N2048       N  0.73319706  0.43747377  0.94933933    -0.46200
N2049       N  0.72027785  0.04288625  0.60151505    -0.46400
C2050       C  0.81448714  0.05894902  0.95967791     0.42900
N2051       N  0.78851648  0.02152410  0.56362465     0.01800
N2052       N  0.71655380  0.02201465  0.96685866    -0.25100
N2053       N  0.75720521  0.45726655  0.99321410    -0.25600
N2054       N  0.69830840  0.02296140  0.98752483     0.01400
H2055       H  0.73756217  0.04679312  0.92498316     0.07300
H2056       H  0.67928612  0.05014069  0.54702875     0.07300
N2057       N  0.76956285  0.02093514  0.58443191    -0.25700
N2058       N  0.66289746  0.45597972  0.55730607    -0.25300
N2059       N  0.77252449  0.02195660  0.97040056     0.01800
C2060       C  0.74644485  0.42173318  0.59361605     0.43200
C2061       C  0.67116074  0.43826728  0.94675494    -0.06500
N2062       N  0.69666842  0.02170588  0.55795632    -0.25300
H2063       H  0.61680723  0.42781799  0.54732106     0.07300
N2064       N  0.76169624  0.43611645  0.56763574    -0.46500
H2065       H  0.68100868  0.43383976  0.92670357     0.07300
C2066       C  0.70767444  0.05756420  0.95471624     0.43000
C2067       C  0.76117191  0.43432124  0.98779676    -0.06000
Co2068     Co  0.72939146  0.49048046  0.96889461     0.73800
N2069       N  0.63905256  0.43776690  0.98275245    -0.46200
C2070       C  0.81443308  0.05647891  0.59547546     0.43300
N2071       N  0.78656217  0.04323851  0.94969511    -0.46200
Co2072     Co  0.67939800  0.48828724  0.52231371     0.73900
C2073       C  0.69227046  0.04447546  0.56206038    -0.06500
C2074       C  0.73007022  0.43565408  0.60425527    -0.06100
N2075       N  0.78961027  0.02236086  0.99329148    -0.25600
N2076       N  0.66554349  0.43511227  0.60118899    -0.46400
H2077       H  0.77407425  0.04648459  0.62567953     0.07300
C2078       C  0.72360486  0.04292258  0.94524619    -0.06500
Cl2079     Cl  0.72632677  0.48886334  0.52525290    -0.49500
C2080       C  0.64068581  0.42394210  0.95672275     0.43000
H2081       H  0.83568968  0.05106014  0.00328710     0.07200
N2082       N  0.69231980  0.04411820  0.98113049    -0.46200
C2083       C  0.70679711  0.09148671  0.79724437     0.16400
C2084       C  0.70094770  0.07894688  0.76725804    -0.32700
C2085       C  0.71153381  0.09789673  0.74131564     0.20700
C2086       C  0.72733709  0.12807200  0.74495877     0.02900
C2087       C  0.73332650  0.14069878  0.77509242    -0.22400
C2088       C  0.72254080  0.12164285  0.80115476     0.12100
S2089       S  0.69544661  0.07197423  0.83138508    -0.06100
C2090       C  0.71191864  0.10469182  0.85166042    -0.09500
C2091       C  0.72548986  0.12941914  0.83239351    -0.26100
S2092       S  0.73730560  0.14708153  0.71021121    -0.03300
C2093       C  0.71993279  0.11391586  0.69057021    -0.16800
C2094       C  0.70733976  0.08966917  0.71036978    -0.14800
H2095       H  0.68845528  0.05538401  0.76426943     0.20600
H2096       H  0.74554145  0.16426610  0.77806557     0.16600
H2097       H  0.73709742  0.15181634  0.84072208     0.19100
H2098       H  0.69484801  0.06712287  0.70261468     0.12500
C2099       C  0.87755973  0.25903556  0.79530636     0.16400
C2100       C  0.88992196  0.26353834  0.76515908    -0.33600
C2101       C  0.87087338  0.25536075  0.73937881     0.20700
C2102       C  0.84082698  0.24292785  0.74336657     0.02900
C2103       C  0.82841894  0.23813405  0.77357512    -0.22400
C2104       C  0.84753536  0.24669300  0.79939813     0.12100
S2105       S  0.89706511  0.26856255  0.82944002    -0.06100
C2106       C  0.86447969  0.25606966  0.84984899    -0.09500
C2107       C  0.83986778  0.24484981  0.83055424    -0.26100
S2108       S  0.82170574  0.23559312  0.70897401    -0.03300
C2109       C  0.85460349  0.24960508  0.68883809    -0.16800
C2110       C  0.87889594  0.25916939  0.70830574    -0.14800
H2111       H  0.91341828  0.27346785  0.76192553     0.20600
H2112       H  0.80496639  0.22867732  0.77679266     0.16600
H2113       H  0.81746220  0.23575631  0.83868368     0.19100
H2114       H  0.90144763  0.26932509  0.70032501     0.12500
C2115       C  0.84268661  0.09217720  0.80123342     0.16400
C2116       C  0.83422025  0.07949869  0.77141898    -0.32700
C2117       C  0.84681076  0.09777691  0.74517610     0.20700
C2118       C  0.86659145  0.12744268  0.74839744     0.02900
C2119       C  0.87476142  0.14024446  0.77830005    -0.22400
C2120       C  0.86249464  0.12182406  0.80459982     0.12100
S2121       S  0.83107910  0.07336719  0.83578088    -0.06100
C2122       C  0.85325228  0.10574604  0.85546089    -0.09500
C2123       C  0.86857497  0.12980681  0.83558203    -0.26100
S2124       S  0.88038367  0.14540241  0.71353783    -0.03300
C2125       C  0.85949739  0.11247318  0.69419853    -0.16800
C2126       C  0.84258044  0.08910476  0.71438081    -0.14800
H2127       H  0.81899887  0.05623534  0.76879180     0.20600
H2128       H  0.89049792  0.16334745  0.78094877     0.16600
H2129       H  0.88344811  0.15201207  0.84310246     0.19100
H2130       H  0.82870344  0.06653852  0.70726917     0.12500
C2131       C  0.58462363  0.23140651  0.79550264     0.16400
C2132       C  0.57570819  0.23536486  0.76572095    -0.32700
C2133       C  0.58709734  0.22844505  0.73939412     0.20700
C2134       C  0.60672844  0.21834608  0.74266408     0.02900
C2135       C  0.61582851  0.21459662  0.77244149    -0.22400
C2136       C  0.60418304  0.22123331  0.79878744     0.12100
S2137       S  0.57226579  0.23730508  0.83017427    -0.06100
C2138       C  0.59336486  0.22559969  0.84978524    -0.09500
C2139       C  0.60940575  0.21795952  0.82976484    -0.26100
S2140       S  0.61777372  0.21089057  0.70802076    -0.03300
C2141       C  0.59573520  0.22153080  0.68853465    -0.16800
C2142       C  0.58065390  0.23030096  0.70847818    -0.14800
H2143       H  0.56023625  0.24310763  0.76320772     0.20600
H2144       H  0.63100968  0.20649899  0.77495656     0.16600
H2145       H  0.62339153  0.20948490  0.83721996     0.19100
H2146       H  0.56603863  0.23799730  0.70092998     0.12500
C2147       C  0.58348160  0.35360489  0.74766474     0.16400
C2148       C  0.57264651  0.34252093  0.77776735    -0.32700
C2149       C  0.58705774  0.36049647  0.80356805     0.20700
C2150       C  0.61129513  0.38815061  0.79954126     0.02900
C2151       C  0.62222606  0.39921863  0.76942028    -0.22400
C2152       C  0.60763098  0.38130943  0.74358215     0.12100
S2153       S  0.56830242  0.33570300  0.71350288    -0.06100
C2154       C  0.59438755  0.36604823  0.69289498    -0.09500
C2155       C  0.61410689  0.38855556  0.71239180    -0.26100
S2156       S  0.62542143  0.40652189  0.83374648    -0.03300
C2157       C  0.59835211  0.37662384  0.85418576    -0.16800
C2158       C  0.57950776  0.35373716  0.83463374    -0.14800
H2159       H  0.55356812  0.32094782  0.78091540     0.20600
H2160       H  0.64104179  0.42096446  0.76625625     0.16600
H2161       H  0.63172226  0.40963390  0.70459561     0.19100
H2162       H  0.56118832  0.33305595  0.84230035     0.12500
C2163       C  0.74805664  0.36146416  0.74698563     0.16400
C2164       C  0.75376909  0.35524039  0.77731801    -0.32700
C2165       C  0.74519058  0.36611927  0.80279288     0.20700
C2166       C  0.73155482  0.38253311  0.79847133     0.02900
C2167       C  0.72592582  0.38889833  0.76803032    -0.22400
C2168       C  0.73452893  0.37796040  0.74246342     0.12100
S2169       S  0.75690761  0.35030406  0.71308732    -0.06100
C2170       C  0.74256382  0.36833045  0.69216665    -0.09500
C2171       C  0.73124059  0.38191313  0.71113345    -0.26100
S2172       S  0.72293368  0.39352815  0.83280150    -0.03300
C2173       C  0.73767853  0.37552255  0.85322436    -0.16800
C2174       C  0.74889229  0.36219857  0.83388632    -0.14800
H2175       H  0.76443369  0.34243250  0.78092653     0.20600
H2176       H  0.71536082  0.40179440  0.76442526     0.16600
H2177       H  0.72105512  0.39405901  0.70262394     0.19100
H2178       H  0.75967246  0.35049066  0.84199218     0.12500
C2179       C  0.74352413  0.87118596  0.15704305     0.03500
C2180       C  0.74371147  0.89479281  0.14146901    -0.12600
C2181       C  0.74622272  0.89746745  0.10865937     0.01000
C2182       C  0.74926970  0.87674284  0.09093284    -0.11100
C2183       C  0.74802026  0.85238444  0.10578911     0.03500
C2184       C  0.74504196  0.84966833  0.13877062    -0.10600
H2185       H  0.74279537  0.91179580  0.15474999     0.09100
H2186       H  0.75109462  0.87879624  0.06553705     0.06700
H2187       H  0.74415969  0.83082262  0.15012200     0.06500
C2188       C  0.74190429  0.87530076  0.38828415     0.03500
C2189       C  0.74161220  0.85138552  0.40340382    -0.12600
C2190       C  0.74505874  0.85114604  0.43610440     0.01000
C2191       C  0.74866459  0.87501343  0.45410532    -0.11100
C2192       C  0.74731303  0.89825180  0.43963466     0.03500
C2193       C  0.74394308  0.89825782  0.40682152    -0.10600
H2194       H  0.73886286  0.83286358  0.38979797     0.09100
H2195       H  0.75105686  0.87480819  0.47941002     0.06700
H2196       H  0.74367789  0.91664459  0.39570519     0.06500
C2197       C  0.59767101  0.87372819  0.38891742     0.03500
C2198       C  0.57348461  0.85121442  0.40517826    -0.12600
C2199       C  0.57069901  0.85266780  0.43803784     0.01000
C2200       C  0.59236351  0.87676998  0.45477309    -0.11100
C2201       C  0.61721195  0.89850776  0.43908408     0.03500
C2202       C  0.61956062  0.89689093  0.40640603    -0.10600
H2203       H  0.55631018  0.83298454  0.39238277     0.09100
H2204       H  0.59065906  0.87786819  0.48008807     0.06700
H2205       H  0.63872295  0.91402908  0.39456663     0.06500
C2206       C  0.59361086  0.86942611  0.15773382     0.03500
C2207       C  0.61574904  0.89356827  0.14109678    -0.12600
C2208       C  0.61331651  0.89678266  0.10852817     0.01000
C2209       C  0.58866179  0.87543478  0.09227725    -0.11100
C2210       C  0.56725047  0.85052440  0.10818475     0.03500
C2211       C  0.56967294  0.84789472  0.14077553    -0.10600
H2212       H  0.63498305  0.90998993  0.15331312     0.09100
H2213       H  0.58694541  0.87735496  0.06708593     0.06700
H2214       H  0.55248905  0.82902313  0.15296020     0.06500
C2215       C  0.59399471  0.72206807  0.15387587     0.03500
C2216       C  0.57000135  0.72074967  0.13770030    -0.12600
C2217       C  0.56839137  0.71851110  0.10461432     0.01000
C2218       C  0.59080942  0.71757886  0.08768984    -0.11100
C2219       C  0.61531574  0.72035647  0.10347089     0.03500
C2220       C  0.61668848  0.72244548  0.13624398    -0.10600
H2221       H  0.55224064  0.72069398  0.15062905     0.09100
H2222       H  0.58996248  0.71626135  0.06222997     0.06700
H2223       H  0.63577075  0.72434879  0.14800910     0.06500
C2224       C  0.59442121  0.72520405  0.38506751     0.03500
C2225       C  0.57078923  0.72366487  0.40202704    -0.12600
C2226       C  0.56827452  0.71920610  0.43463866     0.01000
C2227       C  0.58938038  0.71547451  0.45079725    -0.11100
C2228       C  0.61384245  0.71792445  0.43462278     0.03500
C2229       C  0.61627672  0.72287948  0.40182140    -0.10600
H2230       H  0.55374008  0.72545700  0.38982884     0.09100
H2231       H  0.58759170  0.71229464  0.47607061     0.06700
H2232       H  0.63525035  0.72492696  0.38953545     0.06500
C2233       C  0.85398015  0.60835525  0.39052030     0.03500
C2234       C  0.83292761  0.58507029  0.40887309    -0.12600
C2235       C  0.83677043  0.58359628  0.44134137     0.01000
C2236       C  0.86169908  0.60592029  0.45600524    -0.11100
C2237       C  0.88212794  0.63010709  0.43839427     0.03500
C2238       C  0.87832443  0.63116179  0.40582508    -0.10600
H2239       H  0.81356337  0.56752730  0.39789893     0.09100
H2240       H  0.86457768  0.60509347  0.48114958     0.06700
H2241       H  0.89499841  0.64944250  0.39252758     0.06500
C2242       C  0.85956579  0.60914156  0.15964079     0.03500
C2243       C  0.88324686  0.63006469  0.14157991    -0.12600
C2244       C  0.88493994  0.62629589  0.10906816     0.01000
C2245       C  0.86287445  0.60120321  0.09431682    -0.11100
C2246       C  0.83843676  0.58080470  0.11161457     0.03500
C2247       C  0.83688982  0.58484599  0.14407089    -0.10600
H2248       H  0.90078236  0.64930649  0.15275197     0.09100
H2249       H  0.86384886  0.59841687  0.06917116     0.06700
H2250       H  0.81779317  0.56891587  0.15697377     0.06500
C2251       C  0.85441963  0.75092487  0.15474473     0.03500
C2252       C  0.83360860  0.75323161  0.13626550    -0.12600
C2253       C  0.83729766  0.75751890  0.10358914     0.01000
C2254       C  0.86207348  0.75933070  0.08902025    -0.11100
C2255       C  0.88240374  0.75566453  0.10691031     0.03500
C2256       C  0.87849448  0.75151175  0.13963462    -0.10600
H2257       H  0.81452632  0.75209873  0.14737539     0.09100
H2258       H  0.86490456  0.76237193  0.06376777     0.06700
H2259       H  0.89496085  0.74996008  0.15334430     0.06500
C2260       C  0.86107977  0.75453350  0.38574456     0.03500
C2261       C  0.88433491  0.75623902  0.40364971    -0.12600
C2262       C  0.88554804  0.76059605  0.43644722     0.01000
C2263       C  0.86307637  0.76293219  0.45149178    -0.11100
C2264       C  0.83900517  0.75970490  0.43417880     0.03500
C2265       C  0.83823607  0.75573641  0.40148727    -0.10600
H2266       H  0.90195053  0.75487892  0.39203631     0.09100
H2267       H  0.86353558  0.76569574  0.47678315     0.06700
H2268       H  0.81955948  0.75331319  0.38838480     0.06500
C2269       C  0.70858971  0.60275059  0.38700723     0.03500
C2270       C  0.70853266  0.62605102  0.40307738    -0.12600
C2271       C  0.70607399  0.62549964  0.43608419     0.01000
C2272       C  0.70385808  0.60159733  0.45313501    -0.11100
C2273       C  0.70524202  0.57899382  0.43750991     0.03500
C2274       C  0.70729252  0.57955819  0.40459504    -0.10600
H2275       H  0.70953750  0.64419288  0.38999201     0.09100
H2276       H  0.70257384  0.60129121  0.47859454     0.06700
H2277       H  0.70819614  0.56188580  0.39266459     0.06500
C2278       C  0.71805976  0.61213564  0.15651902     0.03500
C2279       C  0.71614321  0.58817573  0.14008096    -0.12600
C2280       C  0.71050145  0.58503843  0.10764372     0.01000
C2281       C  0.70695033  0.60626693  0.09126936    -0.11100
C2282       C  0.71013323  0.63103631  0.10703090     0.03500
C2283       C  0.71565453  0.63377137  0.13962574    -0.10600
H2284       H  0.71875558  0.57169778  0.15258497     0.09100
H2285       H  0.70299172  0.60419332  0.06614897     0.06700
H2286       H  0.71719489  0.65240710  0.15203891     0.06500
C2287       C  0.74847867  0.82902465  0.08705948     0.42900
N2288       N  0.74127947  0.78663246  0.07437367     0.01800
C2289       C  0.78336480  0.74279710  0.43967673    -0.06100
H2290       H  0.71458353  0.78585494  0.42025390     0.07200
C2291       C  0.63585277  0.70139591  0.48142644    -0.06500
Co2292     Co  0.77355050  0.78690184  0.01629087     0.74200
N2293       N  0.73647151  0.78084290  0.46062329    -0.25600
Co2294     Co  0.72460363  0.73672346  0.46141161     0.74100
C2295       C  0.63756976  0.71667111  0.45193673     0.43000
N2296       N  0.66620644  0.71183232  0.05607400     0.01400
N2297       N  0.68029161  0.72375547  0.46342025     0.01500
N2298       N  0.81485964  0.77418875  0.47596945    -0.46500
H2299       H  0.77761148  0.85051603  0.04329158     0.07200
N2300       N  0.75465313  0.79956848  0.48158574     0.01800
N2301       N  0.71279795  0.69255452  0.46356013     0.01500
C2302       C  0.70602158  0.64990830  0.45285348     0.43100
N2303       N  0.68503474  0.73050668  0.07658798    -0.25100
C2304       C  0.81713866  0.77520964  0.05612933    -0.06000
N2305       N  0.73526664  0.80075536  0.09614989    -0.46200
N2306       N  0.71878743  0.67786417  0.44236815    -0.46400
C2307       C  0.81446312  0.75920553  0.08530497     0.42900
N2308       N  0.78753261  0.76812713  0.48133120     0.01800
N2309       N  0.71678910  0.69900001  0.07776925    -0.25100
N2310       N  0.75821876  0.80388090  0.05158601    -0.25600
N2311       N  0.69863929  0.67963212  0.05732687     0.01400
H2312       H  0.73890861  0.69602524  0.11889591     0.07300
H2313       H  0.67778588  0.62967036  0.49728282     0.07300
N2314       N  0.76881945  0.74973509  0.46050700    -0.25700
N2315       N  0.66337622  0.70684212  0.48645969    -0.25300
N2316       N  0.77277467  0.75465411  0.07425091     0.01800
C2317       C  0.74438039  0.82561800  0.45119899     0.43200
C2318       C  0.67078862  0.73835947  0.09671041    -0.06500
N2319       N  0.69644612  0.67574663  0.48695348    -0.25300
H2320       H  0.61693747  0.68774158  0.49598423     0.07300
N2321       N  0.75993839  0.82667646  0.47686053    -0.46500
H2322       H  0.68046156  0.75300585  0.11644754     0.07300
C2323       C  0.70929916  0.65503043  0.08981842     0.43000
C2324       C  0.76370007  0.83130173  0.05731758    -0.06000
Co2325     Co  0.72892954  0.74272638  0.07616193     0.73800
N2326       N  0.63899831  0.70624582  0.06108767    -0.46200
C2327       C  0.81374352  0.75890660  0.45000649     0.43300
N2328       N  0.78646015  0.74723985  0.09512128    -0.46200
Co2329     Co  0.68040487  0.69358243  0.02167665     0.73900
C2330       C  0.69126583  0.64840643  0.48243995    -0.06500
C2331       C  0.72893359  0.79534328  0.44025834    -0.06100
N2332       N  0.79011274  0.77123906  0.05133338    -0.25600
N2333       N  0.66575146  0.72990389  0.44221961    -0.46400
H2334       H  0.77379824  0.72847711  0.41967432     0.07300
C2335       C  0.72453768  0.68557462  0.09911934    -0.06500
Cl2336     Cl  0.72690662  0.74031784  0.01881661    -0.49500
C2337       C  0.64045629  0.72244055  0.08631688     0.43000
H2338       H  0.83623926  0.78816167  0.04153723     0.07200
N2339       N  0.69354567  0.65270660  0.06362299    -0.46200
C2340       C  0.54545035  0.82869674  0.45482085     0.42900
N2341       N  0.00928078  0.78645287  0.46628908     0.01800
C2342       C  0.92236632  0.74018015  0.10232208    -0.06100
H2343       H  0.53333529  0.78523997  0.12031692     0.07200
C2344       C  0.53078113  0.70342775  0.05788772    -0.06500
Co2345     Co  0.97671820  0.78524048  0.02642410     0.74200
N2346       N  0.00801724  0.77978598  0.08222980    -0.25600
Co2347     Co  0.97630261  0.73588061  0.08087147     0.74100
C2348       C  0.54378027  0.71794652  0.08761869     0.43000
N2349       N  0.00792125  0.71034846  0.48419699     0.01400
N2350       N  0.00802805  0.72361576  0.07871827     0.01500
N2351       N  0.92232871  0.77185981  0.06620677    -0.46500
H2352       H  0.53732479  0.84885014  0.49913797     0.07200
N2353       N  0.00901914  0.79905382  0.06162005     0.01800
N2354       N  0.94466205  0.69201084  0.07858862     0.01500
C2355       C  0.90913217  0.64959316  0.09072476     0.43100
N2356       N  0.00801326  0.72934405  0.46380632    -0.25100
C2357       C  0.92290076  0.77662350  0.48437394    -0.06000
N2358       N  0.53014689  0.80076571  0.44459996    -0.46200
N2359       N  0.92422898  0.67769922  0.10009946    -0.46400
C2360       C  0.90981521  0.76151537  0.45473336     0.42900
N2361       N  0.94425723  0.76671528  0.06132699     0.01800
N2362       N  0.94469876  0.69866674  0.46368092    -0.25100
N2363       N  0.00962656  0.80328363  0.48942932    -0.25600
N2364       N  0.94353920  0.67945204  0.48445255     0.01400
H2365       H  0.91835809  0.69511187  0.42340505     0.07300
H2366       H  0.91687743  0.62853948  0.04687242     0.07300
N2367       N  0.94453382  0.74812219  0.08199173    -0.25700
N2368       N  0.00846418  0.70719725  0.05554127    -0.25300
N2369       N  0.94572419  0.75512183  0.46652658     0.01800
C2370       C  0.54324897  0.82597098  0.09106649     0.43200
C2371       C  0.53009242  0.73660052  0.44142676    -0.06500
N2372       N  0.94433521  0.67498668  0.05566676    -0.25300
H2373       H  0.53601549  0.68986471  0.04329139     0.07300
N2374       N  0.52941517  0.82783543  0.06507802    -0.46500
H2375       H  0.53504923  0.75134907  0.42167407     0.07300
C2376       C  0.90734477  0.65466007  0.45376765     0.43000
C2377       C  0.53188491  0.83016832  0.48429740    -0.06000
Co2378     Co  0.97702053  0.74241299  0.46458380     0.73800
N2379       N  0.52962867  0.70420645  0.47693834    -0.46200
C2380       C  0.90765039  0.75580051  0.09172836     0.43300
N2381       N  0.92521672  0.74884947  0.44517781    -0.46200
Co2382     Co  0.97654749  0.69202041  0.02039427     0.73900
C2383       C  0.92224117  0.64755744  0.06110835    -0.06500
C2384       C  0.52898103  0.79535677  0.10046531    -0.06100
N2385       N  0.94525632  0.77162059  0.48958361    -0.25600
N2386       N  0.52883878  0.73103166  0.09759695    -0.46400
H2387       H  0.91728346  0.72535675  0.12202381     0.07300
C2388       C  0.92278035  0.68499741  0.44320375    -0.06500
Cl2389     Cl  0.97659246  0.73861352  0.02342855    -0.49500
C2390       C  0.54420554  0.72018980  0.45132344     0.43000
H2391       H  0.91721821  0.78992833  0.49883599     0.07200
N2392       N  0.92129993  0.65264709  0.47944690    -0.46200
C2393       C  0.74822860  0.92218439  0.45833969     0.42900
N2394       N  0.74233072  0.95828560  0.47036534     0.01800
C2395       C  0.78305268  0.54183929  0.10586592    -0.06100
H2396       H  0.71472062  0.93110825  0.12434492     0.07200
C2397       C  0.63551037  0.93592562  0.06246875    -0.06500
Co2398     Co  0.77284028  0.98995410  0.02801737     0.74200
N2399       N  0.73614769  0.95787563  0.08360803    -0.25600
Co2400     Co  0.72398756  0.98984353  0.08307301     0.74100
C2401       C  0.63715555  0.92197011  0.09157906     0.43000
N2402       N  0.66718818  0.95767028  0.48789743     0.01400
N2403       N  0.67973532  0.95826548  0.08080950     0.01500
N2404       N  0.81496014  0.54240213  0.06955823    -0.46500
H2405       H  0.77715884  0.92940520  0.50192511     0.07200
N2406       N  0.75452149  0.95761885  0.06257099     0.01800
N2407       N  0.71312231  0.52217011  0.08140407     0.01500
C2408       C  0.70857451  0.55955334  0.09121958     0.43100
N2409       N  0.68635808  0.95843110  0.46732664    -0.25100
C2410       C  0.81668205  0.54528762  0.48835902    -0.06000
N2411       N  0.73566362  0.93774698  0.44901879    -0.46200
N2412       N  0.72055633  0.54370729  0.10176526    -0.46400
C2413       C  0.81399579  0.55881941  0.45940081     0.42900
N2414       N  0.78766830  0.52131356  0.06383168     0.01800
N2415       N  0.71601732  0.52035835  0.46674324    -0.25100
N2416       N  0.75903852  0.95766435  0.49309510    -0.25600
N2417       N  0.69739217  0.52072616  0.48729345     0.01400
H2418       H  0.73735770  0.54595148  0.42539928     0.07300
H2419       H  0.67987052  0.55165078  0.04741427     0.07300
N2420       N  0.76877503  0.52079452  0.08466335    -0.25700
N2421       N  0.66291095  0.95834967  0.05785428    -0.25300
N2422       N  0.77243989  0.52145807  0.47029906     0.01800
C2423       C  0.74490113  0.92170139  0.09318805     0.43200
C2424       C  0.67245610  0.93705003  0.44640686    -0.06500
N2425       N  0.69662446  0.52270115  0.05835857    -0.25300
H2426       H  0.61674656  0.93061601  0.04778183     0.07300
N2427       N  0.76034725  0.93619580  0.06738535    -0.46500
H2428       H  0.68254994  0.93273554  0.42650285     0.07300
C2429       C  0.70675077  0.55570868  0.45510879     0.43000
C2430       C  0.76376839  0.93519295  0.48772555    -0.06000
Co2431     Co  0.73029285  0.99004904  0.46851279     0.73800
N2432       N  0.64002877  0.93619933  0.48216300    -0.46200
C2433       C  0.81353264  0.55612017  0.09580821     0.43300
N2434       N  0.78608738  0.54278335  0.44958762    -0.46200
Co2435     Co  0.67992686  0.99068454  0.02278234     0.73900
C2436       C  0.69268365  0.54574047  0.06241703    -0.06500
C2437       C  0.72896556  0.93602530  0.10412888    -0.06100
N2438       N  0.78972627  0.52209536  0.49307682    -0.25600
N2439       N  0.66517538  0.93706593  0.10159284    -0.46400
H2440       H  0.77321795  0.54624161  0.12594556     0.07300
C2441       C  0.72306552  0.54152906  0.44548105    -0.06500
Cl2442     Cl  0.72630731  0.99015868  0.02552399    -0.49500
C2443       C  0.64188746  0.92229662  0.45628067     0.43000
H2444       H  0.83574040  0.55138193  0.50286210     0.07200
N2445       N  0.69115376  0.54175813  0.48120862    -0.46200
C2446       C  0.70687148  0.58950536  0.29755955     0.16400
C2447       C  0.70228927  0.57743925  0.26736364    -0.32700
C2448       C  0.71307662  0.59686133  0.24176546     0.20700
C2449       C  0.72807078  0.62697676  0.24597477     0.02900
C2450       C  0.73300720  0.63907504  0.27627972    -0.22400
C2451       C  0.72182607  0.61960721  0.30192323     0.12100
S2452       S  0.69471554  0.56957539  0.33142898    -0.06100
C2453       C  0.70990853  0.60211325  0.35208585    -0.09500
C2454       C  0.72358119  0.62700757  0.33313844    -0.26100
S2455       S  0.73784608  0.64665489  0.21165979    -0.03300
C2456       C  0.72127227  0.61389477  0.19132930    -0.16800
C2457       C  0.70932656  0.58924376  0.21063605    -0.14800
H2458       H  0.69033545  0.55391594  0.26393624     0.20600
H2459       H  0.74447948  0.66259114  0.27967903     0.16600
H2460       H  0.73460439  0.64933671  0.34167371     0.19100
H2461       H  0.69727032  0.56681296  0.20244029     0.12500
C2462       C  0.86592024  0.74226415  0.29661408     0.16400
C2463       C  0.87217916  0.73557834  0.26666523    -0.33600
C2464       C  0.86073754  0.74277777  0.24050841     0.20700
C2465       C  0.84359038  0.75572616  0.24403695     0.02900
C2466       C  0.83714016  0.76219286  0.27395219    -0.22400
C2467       C  0.84881625  0.75526420  0.30006353     0.12100
S2468       S  0.87850185  0.73624940  0.33126681    -0.06100
C2469       C  0.86046934  0.75138316  0.35085811    -0.09500
C2470       C  0.84562606  0.76055988  0.33095359    -0.26100
S2471       S  0.83258207  0.76356403  0.20947692    -0.03300
C2472       C  0.85163009  0.74962272  0.18967657    -0.16800
C2473       C  0.86530516  0.73905798  0.20947091    -0.14800
H2474       H  0.88573269  0.72563400  0.26385612     0.20600
H2475       H  0.82395557  0.77255473  0.27673177     0.16600
H2476       H  0.83358093  0.77117266  0.33845870     0.19100
H2477       H  0.87817430  0.72939607  0.20177037     0.12500
C2478       C  0.83978638  0.59434760  0.30138759     0.16400
C2479       C  0.83052953  0.58175943  0.27166968    -0.32700
C2480       C  0.84500410  0.59915770  0.24539914     0.20700
C2481       C  0.86743303  0.62790859  0.24850554     0.02900
C2482       C  0.87657104  0.64062061  0.27830097    -0.22400
C2483       C  0.86228540  0.62304961  0.30463796     0.12100
S2484       S  0.82594755  0.57635682  0.33596899    -0.06100
C2485       C  0.85095840  0.60770586  0.35559481    -0.09500
C2486       C  0.86870027  0.63095284  0.33556416    -0.26100
S2487       S  0.88269699  0.64486550  0.21366695    -0.03300
C2488       C  0.85878683  0.61270199  0.19442371    -0.16800
C2489       C  0.83992985  0.59032707  0.21470133    -0.14800
H2490       H  0.81315854  0.55918098  0.26914873     0.20600
H2491       H  0.89435185  0.66297750  0.28085077     0.16600
H2492       H  0.88570375  0.65247930  0.34279598     0.19100
H2493       H  0.82384028  0.56826655  0.20785861     0.12500
C2494       C  0.58609139  0.73421956  0.29581819     0.16400
C2495       C  0.57650140  0.73738973  0.26605326    -0.32700
C2496       C  0.58780254  0.73036252  0.23969663     0.20700
C2497       C  0.60798342  0.72096002  0.24296294     0.02900
C2498       C  0.61779737  0.71809306  0.27267398    -0.22400
C2499       C  0.60623238  0.72477088  0.29903168     0.12100
S2500       S  0.57370256  0.73990139  0.33059130    -0.06100
C2501       C  0.59545372  0.72889101  0.35012367    -0.09500
C2502       C  0.61186963  0.72186117  0.32997373    -0.26100
S2503       S  0.61879178  0.71312982  0.20842366    -0.03300
C2504       C  0.59603961  0.72279121  0.18885281    -0.16800
C2505       C  0.58079755  0.73143927  0.20877200    -0.14800
H2506       H  0.56054265  0.74452164  0.26359356     0.20600
H2507       H  0.63338785  0.71049958  0.27514527     0.16600
H2508       H  0.62622337  0.71378642  0.33729389     0.19100
H2509       H  0.56572773  0.73856328  0.20122107     0.12500
C2510       C  0.58734046  0.85183581  0.24705383     0.16400
C2511       C  0.57887179  0.83920694  0.27715112    -0.32700
C2512       C  0.59105966  0.85772737  0.30323641     0.20700
C2513       C  0.61108907  0.88730182  0.29936553     0.02900
C2514       C  0.61977624  0.89980791  0.26937557    -0.22400
C2515       C  0.60727834  0.88144913  0.24337285     0.12100
S2516       S  0.57383074  0.83372289  0.21245277    -0.06100
C2517       C  0.59499085  0.86652533  0.19257437    -0.09500
C2518       C  0.61184158  0.88997326  0.21240593    -0.26100
S2519       S  0.62273743  0.90632766  0.33355038    -0.03300
C2520       C  0.60025136  0.87422439  0.35389498    -0.16800
C2521       C  0.58477940  0.85002311  0.33442999    -0.14800
H2522       H  0.56299529  0.81612566  0.28008947     0.20600
H2523       H  0.63515349  0.92302329  0.26644071     0.16600
H2524       H  0.62589373  0.91244610  0.20490411     0.19100
H2525       H  0.56966991  0.82795599  0.34243084     0.12500
C2526       C  0.74786183  0.86153970  0.24673087     0.16400
C2527       C  0.75267824  0.85399535  0.27680249    -0.32700
C2528       C  0.74613527  0.86621090  0.30262551     0.20700
C2529       C  0.73537143  0.88522092  0.29884867     0.02900
C2530       C  0.73066310  0.89293147  0.26865522    -0.22400
C2531       C  0.73713936  0.88055819  0.24273662     0.12100
S2532       S  0.75440464  0.84888301  0.21256556    -0.06100
C2533       C  0.74275188  0.86952622  0.19212259    -0.09500
C2534       C  0.73405451  0.88517087  0.21154350    -0.26100
S2535       S  0.72884064  0.89744977  0.33349123    -0.03300
C2536       C  0.74058145  0.87647556  0.35334287    -0.16800
C2537       C  0.74929528  0.86125164  0.33356347    -0.14800
H2538       H  0.76108946  0.83914246  0.27995102     0.20600
H2539       H  0.72229636  0.90781778  0.26550598     0.16600
H2540       H  0.72571496  0.89911912  0.20357634     0.19100
H2541       H  0.75800617  0.84751613  0.34118898     0.12500
C2542       C  0.74422698  0.87007983  0.65662249     0.03500
C2543       C  0.74423213  0.89364405  0.64120938    -0.12600
C2544       C  0.74678971  0.89646178  0.60842627     0.01000
C2545       C  0.74943892  0.87555423  0.59061661    -0.11100
C2546       C  0.74786728  0.85101752  0.60545014     0.03500
C2547       C  0.74528116  0.84838697  0.63841515    -0.10600
H2548       H  0.74219668  0.90994417  0.65470377     0.09100
H2549       H  0.75113115  0.87757959  0.56521179     0.06700
H2550       H  0.74473972  0.82972864  0.64985743     0.06500
C2551       C  0.74382846  0.87671604  0.88738044     0.03500
C2552       C  0.74409757  0.85316432  0.90260950    -0.12600
C2553       C  0.74637838  0.85259429  0.93543241     0.01000
C2554       C  0.74868371  0.87595901  0.95342178    -0.11100
C2555       C  0.74722563  0.89909655  0.93878807     0.03500
C2556       C  0.74483296  0.89933923  0.90582253    -0.10600
H2557       H  0.74358158  0.83560099  0.88895653     0.09100
H2558       H  0.75025079  0.87545364  0.97881077     0.06700
H2559       H  0.74395756  0.91734659  0.89454642     0.06500
C2560       C  0.59429154  0.87678704  0.88756343     0.03500
C2561       C  0.57001925  0.85430217  0.90375967    -0.12600
C2562       C  0.56744370  0.85547139  0.93668742     0.01000
C2563       C  0.58931698  0.87934115  0.95350706    -0.11100
C2564       C  0.61424495  0.90104896  0.93787817     0.03500
C2565       C  0.61634994  0.89979541  0.90509737    -0.10600
H2566       H  0.55280939  0.83615996  0.89087279     0.09100
H2567       H  0.58785525  0.88009536  0.97888879     0.06700
H2568       H  0.63561876  0.91681835  0.89326519     0.06500
C2569       C  0.59694352  0.86680657  0.65692069     0.03500
C2570       C  0.61890852  0.89093418  0.64018991    -0.12600
C2571       C  0.61606323  0.89435050  0.60777009     0.01000
C2572       C  0.59125688  0.87303387  0.59167733    -0.11100
C2573       C  0.57000497  0.84802826  0.60764298     0.03500
C2574       C  0.57288836  0.84521600  0.64015197    -0.10600
H2575       H  0.63816365  0.90738283  0.65237870     0.09100
H2576       H  0.58914274  0.87520476  0.56660557     0.06700
H2577       H  0.55580518  0.82641555  0.65253401     0.06500
C2578       C  0.59219727  0.71843275  0.65398509     0.03500
C2579       C  0.56871184  0.71764948  0.63730507    -0.12600
C2580       C  0.56731304  0.71505976  0.60424089     0.01000
C2581       C  0.58961582  0.71338086  0.58782997    -0.11100
C2582       C  0.61386732  0.71590435  0.60411395     0.03500
C2583       C  0.61481027  0.71808076  0.63688873    -0.10600
H2584       H  0.55114120  0.71828050  0.64988918     0.09100
H2585       H  0.58900812  0.71192410  0.56238121     0.06700
H2586       H  0.63360767  0.71971853  0.64906492     0.06500
C2587       C  0.59419971  0.72686817  0.88509784     0.03500
C2588       C  0.57126120  0.72643293  0.90236927    -0.12600
C2589       C  0.56968152  0.72323536  0.93513934     0.01000
C2590       C  0.59105538  0.71990539  0.95115985    -0.11100
C2591       C  0.61481595  0.72125313  0.93462242     0.03500
C2592       C  0.61637894  0.72489955  0.90164264    -0.10600
H2593       H  0.55395265  0.72787746  0.89028987     0.09100
H2594       H  0.58987970  0.71760405  0.97654477     0.06700
H2595       H  0.63481838  0.72604469  0.88904288     0.06500
C2596       C  0.85637697  0.60567301  0.88962649     0.03500
C2597       C  0.83552844  0.58233349  0.90805245    -0.12600
C2598       C  0.83945469  0.58096810  0.94050841     0.01000
C2599       C  0.86464385  0.60315337  0.95498916    -0.11100
C2600       C  0.88507340  0.62736965  0.93734775     0.03500
C2601       C  0.88099378  0.62844839  0.90472853    -0.10600
H2602       H  0.81593781  0.56497342  0.89718160     0.09100
H2603       H  0.86748090  0.60244280  0.98015701     0.06700
H2604       H  0.89740591  0.64676806  0.89117788     0.06500
C2605       C  0.85847700  0.60959372  0.65882138     0.03500
C2606       C  0.88217574  0.63070765  0.64088740    -0.12600
C2607       C  0.88380801  0.62720610  0.60825068     0.01000
C2608       C  0.86160615  0.60218235  0.59339065    -0.11100
C2609       C  0.83720305  0.58155341  0.61064974     0.03500
C2610       C  0.83580834  0.58534374  0.64318161    -0.10600
H2611       H  0.89971008  0.64978747  0.65231359     0.09100
H2612       H  0.86250404  0.59956103  0.56820209     0.06700
H2613       H  0.81679443  0.56935256  0.65619351     0.06500
C2614       C  0.85907169  0.75692975  0.65564031     0.03500
C2615       C  0.83768964  0.75895963  0.63765802    -0.12600
C2616       C  0.84009452  0.76195211  0.60474228     0.01000
C2617       C  0.86439549  0.76332460  0.58946904    -0.11100
C2618       C  0.88520828  0.75999959  0.60677405     0.03500
C2619       C  0.88242230  0.75679754  0.63960435    -0.10600
H2620       H  0.81906756  0.75846816  0.64911309     0.09100
H2621       H  0.86625788  0.76532926  0.56407363     0.06700
H2622       H  0.89875619  0.75432221  0.65239031     0.06500
C2623       C  0.86136317  0.75343630  0.88741444     0.03500
C2624       C  0.88416069  0.75479902  0.90588847    -0.12600
C2625       C  0.88468827  0.75854887  0.93866924     0.01000
C2626       C  0.86211276  0.76084986  0.95339573    -0.11100
C2627       C  0.83849721  0.75811761  0.93563969     0.03500
C2628       C  0.83827454  0.75454506  0.90289962    -0.10600
H2629       H  0.90194786  0.75336215  0.89485784     0.09100
H2630       H  0.86219928  0.76335150  0.97870764     0.06700
H2631       H  0.82017268  0.75329623  0.88974379     0.06500
C2632       C  0.71084659  0.60502336  0.88794893     0.03500
C2633       C  0.70996383  0.62794800  0.90384332    -0.12600
C2634       C  0.70750049  0.62747204  0.93684268     0.01000
C2635       C  0.70625220  0.60413328  0.95409073    -0.11100
C2636       C  0.70855875  0.58197298  0.93865278     0.03500
C2637       C  0.71068183  0.58245420  0.90572004    -0.10600
H2638       H  0.71010479  0.64560552  0.89060225     0.09100
H2639       H  0.70479774  0.60386691  0.97954026     0.06700
H2640       H  0.71211789  0.56503627  0.89387674     0.06500
C2641       C  0.71573611  0.60966232  0.65686795     0.03500
C2642       C  0.71267865  0.58501990  0.64067474    -0.12600
C2643       C  0.70729663  0.58194666  0.60807935     0.01000
C2644       C  0.70504002  0.60381407  0.59147778    -0.11100
C2645       C  0.70942339  0.62913888  0.60699803     0.03500
C2646       C  0.71465444  0.63182554  0.63958199    -0.10600
H2647       H  0.71438155  0.56810199  0.65337988     0.09100
H2648       H  0.70130826  0.60182505  0.56631481     0.06700
H2649       H  0.71702680  0.65094858  0.65166557     0.06500
C2650       C  0.74776612  0.82747733  0.58675493     0.42900
N2651       N  0.74068345  0.78510819  0.57440401     0.01800
C2652       C  0.78312228  0.74254917  0.94030597    -0.06100
H2653       H  0.71594028  0.78747800  0.91958620     0.07200
C2654       C  0.63634961  0.70417555  0.98120851    -0.06500
Co2655     Co  0.77316082  0.78589908  0.51635720     0.74200
N2656       N  0.73733229  0.78227807  0.96030011    -0.25600
Co2657     Co  0.72483937  0.73802982  0.96126365     0.74100
C2658       C  0.63837516  0.71961410  0.95176627     0.43000
N2659       N  0.66607533  0.70946912  0.55646655     0.01400
N2660       N  0.68071622  0.72569242  0.96308312     0.01500
N2661       N  0.81471726  0.77383776  0.97657926    -0.46500
H2662       H  0.77680701  0.84891115  0.54298381     0.07200
N2663       N  0.75547262  0.80093582  0.98135028     0.01800
N2664       N  0.71252624  0.69383843  0.96360426     0.01500
C2665       C  0.70639735  0.65142597  0.95328510     0.43100
N2666       N  0.68466635  0.72810076  0.57719591    -0.25100
C2667       C  0.81800904  0.77691986  0.55683794    -0.06000
N2668       N  0.73466087  0.79926701  0.59610926    -0.46200
N2669       N  0.71901459  0.67930610  0.94275170    -0.46400
C2670       C  0.81628201  0.76213525  0.58662116     0.42900
N2671       N  0.78760202  0.76863425  0.98141652     0.01800
N2672       N  0.71756766  0.69772292  0.57771311    -0.25100
N2673       N  0.75750399  0.80236243  0.55154020    -0.25600
N2674       N  0.69937655  0.67840181  0.55722896     0.01400
H2675       H  0.73951015  0.69448263  0.61886157     0.07300
H2676       H  0.67789257  0.63104087  0.99755955     0.07300
N2677       N  0.76882951  0.75029814  0.96061199    -0.25700
N2678       N  0.66363930  0.70895158  0.98613407    -0.25300
N2679       N  0.77345999  0.75443367  0.57468222     0.01800
C2680       C  0.74573611  0.82714042  0.95061068     0.43200
C2681       C  0.66981521  0.73478402  0.59786883    -0.06500
N2682       N  0.69601811  0.67703180  0.98692198    -0.25300
H2683       H  0.61737853  0.69090759  0.99585503     0.07300
N2684       N  0.76102791  0.82812179  0.97648739    -0.46500
H2685       H  0.67912087  0.74905235  0.61795507     0.07300
C2686       C  0.70981272  0.65358335  0.58953141     0.43000
C2687       C  0.76290899  0.82973672  0.55707272    -0.06000
Co2688     Co  0.72906041  0.74134961  0.57645090     0.73800
N2689       N  0.63858317  0.70287788  0.56174367    -0.46200
C2690       C  0.81339885  0.75804637  0.95099221     0.43300
N2691       N  0.78807168  0.74881938  0.59626063    -0.46200
Co2692     Co  0.68070329  0.69194899  0.52184699     0.73900
C2693       C  0.69118163  0.64976389  0.98262147    -0.06500
C2694       C  0.73016900  0.79688750  0.93969583    -0.06100
N2695       N  0.79041448  0.77110972  0.55155936    -0.25600
N2696       N  0.66648529  0.73230686  0.94193340    -0.46400
H2697       H  0.77345326  0.72796306  0.92052313     0.07300
C2698       C  0.72527609  0.68415981  0.59895308    -0.06500
Cl2699     Cl  0.72688712  0.73897248  0.51900784    -0.49500
C2700       C  0.63943050  0.71822277  0.58747561     0.43000
H2701       H  0.83697610  0.79074346  0.54242428     0.07200
N2702       N  0.69407646  0.65142908  0.56344990    -0.46200
C2703       C  0.54265586  0.83109781  0.95361867     0.42900
N2704       N  0.00838537  0.78543110  0.96778748     0.01800
C2705       C  0.92360236  0.74250748  0.60126183    -0.06100
H2706       H  0.53458717  0.78277840  0.61973534     0.07200
C2707       C  0.52966515  0.70056296  0.55733833    -0.06500
Co2708     Co  0.97756088  0.78641192  0.52483232     0.74200
N2709       N  0.00888222  0.78005492  0.58026994    -0.25600
Co2710     Co  0.97648694  0.73644297  0.57945555     0.74100
C2711       C  0.54312638  0.71520213  0.58691622     0.43000
N2712       N  0.00886033  0.71055116  0.98526031     0.01400
N2713       N  0.00758852  0.72309323  0.57734847     0.01500
N2714       N  0.92397819  0.77432605  0.56506336    -0.46500
H2715       H  0.53407751  0.85066542  0.99813701     0.07200
N2716       N  0.00995827  0.79953568  0.55988597     0.01800
N2717       N  0.94404135  0.69275641  0.57753641     0.01500
C2718       C  0.90811818  0.65051507  0.58983571     0.43100
N2719       N  0.00818287  0.72907702  0.96478164    -0.25100
C2720       C  0.92190627  0.77459144  0.98639437    -0.06000
N2721       N  0.52827159  0.80301578  0.94373070    -0.46200
N2722       N  0.92368202  0.67862590  0.59922733    -0.46400
C2723       C  0.90855795  0.75904462  0.95712318     0.42900
N2724       N  0.94529217  0.76833805  0.55984244     0.01800
N2725       N  0.94509314  0.69712397  0.96467936    -0.25100
N2726       N  0.00884122  0.80229436  0.99096575    -0.25600
N2727       N  0.94451366  0.67809426  0.98533541     0.01400
H2728       H  0.91976712  0.69270679  0.92318003     0.07300
H2729       H  0.91522069  0.62925971  0.54574951     0.07300
N2730       N  0.94537894  0.74969530  0.58059949    -0.25700
N2731       N  0.00741106  0.70643543  0.55412234    -0.25300
N2732       N  0.94479654  0.75314917  0.96849758     0.01800
C2733       C  0.54531990  0.82386965  0.59075076     0.43200
C2734       C  0.53112800  0.74000979  0.94205618    -0.06500
N2735       N  0.94325442  0.67562419  0.55451119    -0.25300
H2736       H  0.53455620  0.68677626  0.54269516     0.07300
N2737       N  0.53140702  0.82622448  0.56506729    -0.46500
H2738       H  0.53579310  0.75468652  0.92229204     0.07300
C2739       C  0.90984931  0.65231911  0.95309904     0.43000
C2740       C  0.52933310  0.83204816  0.98349101    -0.06000
Co2741     Co  0.97661509  0.74123973  0.96602016     0.73800
N2742       N  0.53141330  0.70798288  0.97757162    -0.46200
C2743       C  0.90941682  0.75871593  0.59083475     0.43300
N2744       N  0.92400114  0.74646189  0.94744029    -0.46200
Co2745     Co  0.97549173  0.69228713  0.51918014     0.73900
C2746       C  0.92090156  0.64833512  0.56001965    -0.06500
C2747       C  0.53031144  0.79324096  0.60016274    -0.06100
N2748       N  0.94443447  0.76985936  0.99137891    -0.25600
N2749       N  0.52854777  0.72865561  0.59695248    -0.46400
H2750       H  0.91852876  0.72790794  0.62117275     0.07300
C2751       C  0.92408658  0.68287494  0.94331700    -0.06500
Cl2752     Cl  0.97670452  0.73944704  0.52202784    -0.49500
C2753       C  0.54590349  0.72432487  0.95213453     0.43000
H2754       H  0.91627643  0.78797875  0.00078468     0.07200
N2755       N  0.92350719  0.65084035  0.97938065    -0.46200
C2756       C  0.74726173  0.92266569  0.95760339     0.42900
N2757       N  0.74058009  0.95831826  0.96990216     0.01800
C2758       C  0.78177517  0.54181459  0.60495232    -0.06100
H2759       H  0.71564369  0.93039427  0.62419305     0.07200
C2760       C  0.63738493  0.93411202  0.56215412    -0.06500
Co2761     Co  0.77444965  0.98964626  0.52834576     0.74200
N2762       N  0.73770346  0.95757550  0.58390576    -0.25600
Co2763     Co  0.72542178  0.98941302  0.58325921     0.74100
C2764       C  0.63941634  0.92008140  0.59104175     0.43000
N2765       N  0.66543487  0.95855215  0.98766623     0.01400
N2766       N  0.68139145  0.95752468  0.58093629     0.01500
N2767       N  0.81397950  0.54299250  0.56869531    -0.46500
H2768       H  0.77626671  0.93024692  0.00119017     0.07200
N2769       N  0.75607827  0.95729498  0.56290253     0.01800
N2770       N  0.71104717  0.51993860  0.58066924     0.01500
C2771       C  0.70507145  0.55631251  0.59149486     0.43100
N2772       N  0.68439593  0.95886359  0.96706099    -0.25100
C2773       C  0.81802509  0.54363197  0.98834368    -0.06000
N2774       N  0.73433364  0.93795582  0.94836310    -0.46200
N2775       N  0.71769396  0.54094216  0.60152722    -0.46400
C2776       C  0.81604550  0.55702276  0.95895510     0.42900
N2777       N  0.78687601  0.52141500  0.56311174     0.01800
N2778       N  0.71797088  0.52257643  0.96795601    -0.25100
N2779       N  0.75741364  0.95789714  0.99262518    -0.25600
N2780       N  0.69950577  0.52333015  0.98845156     0.01400
H2781       H  0.73998607  0.54813622  0.92682498     0.07300
H2782       H  0.67655184  0.54842772  0.54743194     0.07300
N2783       N  0.76775107  0.52046912  0.58390914    -0.25700
N2784       N  0.66446112  0.95724026  0.55791180    -0.25300
N2785       N  0.77349114  0.52158701  0.97087875     0.01800
C2786       C  0.74579852  0.92092629  0.59310112     0.43200
C2787       C  0.67001108  0.93792690  0.94575783    -0.06500
N2788       N  0.69445546  0.52026058  0.55757912    -0.25300
H2789       H  0.61863516  0.92821565  0.54722142     0.07300
N2790       N  0.76152210  0.93558304  0.56749156    -0.46500
H2791       H  0.67978179  0.93361622  0.92555129     0.07300
C2792       C  0.71000459  0.55879343  0.95651083     0.43000
C2793       C  0.76257790  0.93572165  0.98709961    -0.06000
Co2794     Co  0.72855954  0.99022632  0.96814483     0.73800
N2795       N  0.63800767  0.93788219  0.98155344    -0.46200
C2796       C  0.81231373  0.55672752  0.59479723     0.43300
N2797       N  0.78789285  0.54214864  0.94955802    -0.46200
Co2798     Co  0.68122399  0.98970903  0.52294252     0.73900
C2799       C  0.68967464  0.54275839  0.56223500    -0.06500
C2800       C  0.73014150  0.93547450  0.60417850    -0.06100
N2801       N  0.79050971  0.52164582  0.99363616    -0.25600
N2802       N  0.66726984  0.93588112  0.60133474    -0.46400
H2803       H  0.77178321  0.54604546  0.62500787     0.07300
C2804       C  0.72572196  0.54400844  0.94686815    -0.06500
Cl2805     Cl  0.72787557  0.98976252  0.52582246    -0.49500
C2806       C  0.63938172  0.92402308  0.95539318     0.43000
H2807       H  0.83702649  0.54876571  0.00255077     0.07200
N2808       N  0.69402829  0.54488299  0.98243791    -0.46200
C2809       C  0.70623048  0.59008734  0.79870522     0.16400
C2810       C  0.70102762  0.57736291  0.76879453    -0.32700
C2811       C  0.71122875  0.59619147  0.74267763     0.20700
C2812       C  0.72602050  0.62638589  0.74614299     0.02900
C2813       C  0.73137913  0.63917254  0.77615087    -0.22400
C2814       C  0.72103038  0.62027736  0.80233065     0.12100
S2815       S  0.69544883  0.57086062  0.83310676    -0.06100
C2816       C  0.71113034  0.60379339  0.85301238    -0.09500
C2817       C  0.72380945  0.62831864  0.83344472    -0.26100
S2818       S  0.73545098  0.64524876  0.71133733    -0.03300
C2819       C  0.71907185  0.61203638  0.69173943    -0.16800
C2820       C  0.70737018  0.58784840  0.71171463    -0.14800
H2821       H  0.68930766  0.55376612  0.76599084     0.20600
H2822       H  0.74281385  0.66276116  0.77894483     0.16600
H2823       H  0.73491791  0.65081246  0.84148340     0.19100
H2824       H  0.69551511  0.56522661  0.70411772     0.12500
C2825       C  0.87518372  0.75276799  0.79771069     0.16400
C2826       C  0.88709647  0.75459328  0.76768010    -0.33600
C2827       C  0.87034291  0.75379487  0.74163107     0.20700
C2828       C  0.84297571  0.75111427  0.74532326     0.02900
C2829       C  0.83099521  0.74906531  0.77531273    -0.22400
C2830       C  0.84779324  0.75004139  0.80133918     0.12100
S2831       S  0.89231466  0.75446883  0.83230082    -0.06100
C2832       C  0.86230682  0.75170202  0.85229763    -0.09500
C2833       C  0.84019738  0.74921059  0.83231324    -0.26100
S2834       S  0.82643746  0.75112019  0.71090954    -0.03300
C2835       C  0.85669881  0.75474362  0.69077533    -0.16800
C2836       C  0.87836995  0.75591182  0.71060663    -0.14800
H2837       H  0.90859432  0.75689127  0.76475801     0.20600
H2838       H  0.80965347  0.74715358  0.77824765     0.16600
H2839       H  0.81959097  0.74726167  0.83951159     0.19100
H2840       H  0.89924385  0.75860754  0.70324358     0.12500
C2841       C  0.84085532  0.59228073  0.80058378     0.16400
C2842       C  0.83255325  0.57966165  0.77074162    -0.32700
C2843       C  0.84480490  0.59806494  0.74456362     0.20700
C2844       C  0.86389369  0.62788102  0.74783565     0.02900
C2845       C  0.87177018  0.64068194  0.77782156    -0.22400
C2846       C  0.86008645  0.62204888  0.80411750     0.12100
S2847       S  0.83030264  0.57305048  0.83491620    -0.06100
C2848       C  0.85240696  0.60529117  0.85483956    -0.09500
C2849       C  0.86668489  0.62973237  0.83518900    -0.26100
S2850       S  0.87746100  0.64592387  0.71293072    -0.03300
C2851       C  0.85737961  0.61280856  0.69361574    -0.16800
C2852       C  0.84096206  0.58932770  0.71379748    -0.14800
H2853       H  0.81794954  0.55628447  0.76804534     0.20600
H2854       H  0.88709933  0.66388496  0.78052378     0.16600
H2855       H  0.88146003  0.65189262  0.84294748     0.19100
H2856       H  0.82767483  0.56668108  0.70669310     0.12500
C2857       C  0.58433793  0.73306020  0.79557018     0.16400
C2858       C  0.57519400  0.73639431  0.76557826    -0.32700
C2859       C  0.58576181  0.72809785  0.73951781     0.20700
C2860       C  0.60467250  0.71718794  0.74333010     0.02900
C2861       C  0.61391880  0.71403875  0.77321538    -0.22400
C2862       C  0.60325557  0.72215012  0.79921858     0.12100
S2863       S  0.57324402  0.74073911  0.83014908    -0.06100
C2864       C  0.59414620  0.72888780  0.85005446    -0.09500
C2865       C  0.60906144  0.71980547  0.83021909    -0.26100
S2866       S  0.61497792  0.70817697  0.70920856    -0.03300
C2867       C  0.59378030  0.71936617  0.68898414    -0.16800
C2868       C  0.57934352  0.72937611  0.70839410    -0.14800
H2869       H  0.56029516  0.74480087  0.76272353     0.20600
H2870       H  0.62860188  0.70538141  0.77607763     0.16600
H2871       H  0.62266291  0.71094685  0.83786974     0.19100
H2872       H  0.56531554  0.73760863  0.70032997     0.12500
C2873       C  0.58959859  0.85139922  0.74667330     0.16400
C2874       C  0.58051473  0.83951340  0.77699345    -0.32700
C2875       C  0.59062695  0.85896783  0.80256395     0.20700
C2876       C  0.60933063  0.88876124  0.79806103     0.02900
C2877       C  0.61865810  0.90054638  0.76787770    -0.22400
C2878       C  0.60818799  0.88122826  0.74235523     0.12100
S2879       S  0.57813147  0.83206246  0.71240713    -0.06100
C2880       C  0.59820868  0.86464595  0.69184472    -0.09500
C2881       C  0.61335436  0.88891199  0.71119305    -0.26100
S2882       S  0.61877395  0.90883760  0.83171174    -0.03300
C2883       C  0.59722161  0.87684794  0.85262129    -0.16800
C2884       C  0.58355493  0.85196129  0.83378185    -0.14800
H2885       H  0.56567610  0.81624897  0.78043390     0.20600
H2886       H  0.63296565  0.92390284  0.76438311     0.16600
H2887       H  0.62631003  0.91135856  0.70309856     0.19100
H2888       H  0.56942135  0.82985053  0.84232493     0.12500
C2889       C  0.73539524  0.85471506  0.74601798     0.16400
C2890       C  0.72886626  0.84231540  0.77623597    -0.32700
C2891       C  0.73679191  0.86145150  0.80194394     0.20700
C2892       C  0.75055968  0.89156132  0.79780352     0.02900
C2893       C  0.75707827  0.90396541  0.76759609    -0.22400
C2894       C  0.74915263  0.88482871  0.74191197     0.12100
S2895       S  0.72768289  0.83535991  0.71176859    -0.06100
C2896       C  0.74292988  0.86821298  0.69151595    -0.09500
C2897       C  0.75361348  0.89270157  0.71082751    -0.26100
S2898       S  0.75864183  0.91095378  0.83202041    -0.03300
C2899       C  0.74352357  0.87814453  0.85240743    -0.16800
C2900       C  0.73259501  0.85361948  0.83308772    -0.14800
H2901       H  0.71815585  0.81878706  0.77957567     0.20600
H2902       H  0.76788846  0.92749452  0.76425324     0.16600
H2903       H  0.76440310  0.91521849  0.70269535     0.19100
H2904       H  0.72206007  0.83111529  0.84122680     0.12500
loop_ 
_geom_bond_atom_site_label_1 
_geom_bond_atom_site_label_2 
_geom_bond_distance 
_geom_bond_site_symmetry_2 
_ccdc_geom_bond_type 
C1            C2   1.402       .  A
C1            C6   1.405       .  A
C1          C355   1.486       .  S
C2            C3   1.401       .  A
C2            H7   1.082       .  S
C3            C4   1.402       .  A
C3          C245   1.470       .  S
C4            C5   1.403       .  A
C4            H8   1.084       .  S
C5            C6   1.407       .  A
C5          C109   1.473       .  S
C6            H9   1.083       .  S
C10          C11   1.406       .  A
C10          C15   1.405       .  A
C10         C358   1.489       .  S
C11          C12   1.404       .  A
C11          H16   1.082       .  S
C12          C13   1.405       .  A
C12         C139   1.475       .  S
C13          C14   1.403       .  A
C13          H17   1.084       .  S
C14          C15   1.407       .  A
C14         C215   1.477       .  S
C15          H18   1.083       .  S
C19          C20   1.410       .  A
C19          C24   1.402       .  A
C19         C342   1.491       .  S
C20          C21   1.411       .  A
C20          H25   1.082       .  S
C21          C22   1.404       .  A
C21         C162   1.477       .  S
C22          C23   1.398       .  A
C22          H26   1.084       .  S
C23          C24   1.400       .  A
C23         C265   1.469       .  S
C24          H27   1.082       .  S
C28          C29   1.406       .  A
C28          C33   1.403       .  A
C28         C339   1.491       .  S
C29          C30   1.408       .  A
C29          H34   1.082       .  S
C30          C31   1.402       .  A
C30         C223   1.471       .  S
C31          C32   1.399       .  A
C31          H35   1.084       .  S
C32          C33   1.404       .  A
C32         C192   1.471       .  S
C33          H36   1.081       .  S
C37          C38   1.409       .  A
C37          C42   1.401       .  A
C37         C326   1.490       .  S
C38          C39   1.411       .  A
C38          H43   1.082       .  S
C39          C40   1.403       .  A
C39         C170   1.473       .  S
C40          C41   1.397       .  A
C40          H44   1.084       .  S
C41          C42   1.398       .  A
C41         C159   1.466       .  S
C42          H45   1.082       .  S
C46          C47   1.402       .  A
C46          C51   1.408       .  A
C46         C323   1.492       .  S
C47          C48   1.402       .  A
C47          H52   1.082       .  S
C48          C49   1.400       .  A
C48         C212   1.472       .  S
C49          C50   1.404       .  A
C49          H53   1.084       .  S
C50          C51   1.409       .  A
C50         C117   1.475       .  S
C51          H54   1.082       .  S
C55          C56   1.406       .  A
C55          C60   1.406       .  A
C55         C307   1.494       .  S
C56          C57   1.406       .  A
C56          H61   1.083       .  S
C57          C58   1.400       .  A
C57         C235   1.474       .  S
C58          C59   1.402       .  A
C58          H62   1.084       .  S
C59          C60   1.407       .  A
C59         C198   1.471       .  S
C60          H63   1.082       .  S
C64          C65   1.405       .  A
C64          C69   1.406       .  A
C64         C310   1.496       .  S
C65          C66   1.410       .  A
C65          H70   1.083       .  S
C66          C67   1.400       .  A
C66         C177   1.471       .  S
C67          C68   1.398       .  A
C67          H71   1.084       .  S
C68          C69   1.407       .  A
C68         C255   1.473       .  S
C69          H72   1.080       .  S
C73          C74   1.405       .  A
C73          C78   1.402       .  A
C73         C294   1.489       .  S
C74          C75   1.408       .  A
C74          H79   1.083       .  S
C75          C76   1.403       .  A
C75         C129   1.475       .  S
C76          C77   1.402       .  A
C76          H80   1.084       .  S
C77          C78   1.402       .  A
C77         C202   1.471       .  S
C78          H81   1.081       .  S
C82          C83   1.403       .  A
C82          C87   1.405       .  A
C82         C291   1.488       .  S
C83          C84   1.404       .  A
C83          H88   1.083       .  S
C84          C85   1.401       .  A
C84         C182   1.471       .  S
C85          C86   1.402       .  A
C85          H89   1.084       .  S
C86          C87   1.406       .  A
C86         C149   1.470       .  S
C87          H90   1.082       .  S
C91          C92   1.406       .  A
C91          C96   1.404       .  A
C91         C275   1.486       .  S
C92          C93   1.408       .  A
C92          H97   1.083       .  S
C93          C94   1.406       .  A
C93         C124   1.475       .  S
C94          C95   1.400       .  A
C94          H98   1.084       .  S
C95          C96   1.403       .  A
C95         C251   1.474       .  S
C96          H99   1.083       .  S
C100        C101   1.404       .  A
C100        C105   1.401       .  A
C100        C278   1.485       .  S
C101        C102   1.406       .  A
C101        H106   1.083       .  S
C102        C103   1.406       .  A
C102        C230   1.476       .  S
C103        C104   1.403       .  A
C103        H107   1.084       .  S
C104        C105   1.407       .  A
C104        C145   1.477       .  S
C105        H108   1.082       .  S
C109        C146   1.463       .  S
C109        N127   1.347       .  A
N110        N127   1.322       .  A
N110        N132   1.319       .  A
N110       Co147   2.071       .  S
C111        C149   1.453       .  S
C111        H156   1.082       .  S
C111        N136   1.335       .  A
H112        C153   1.082       .  S
C113        C117   1.464       .  S
C113        H142   1.081       .  S
C113        N137   1.344       .  A
Co114       N132   2.091       .  S
Co114       N154   2.096       .  S
Co114       N485   2.091   1_554  S
Co114       N493   2.091   1_554  S
Co114      Cl158   2.454       .  S
N115        C153   1.340       .  A
N115        N122   1.321       .  A
N115       Co116   2.087       .  S
Co116       N119   2.074       .  S
Co116       N136   2.069       .  S
Co116       N123   2.090       .  S
Co116      Cl521   2.452       .  S
C117        N155   1.347       .  A
N118        N125   1.320       .  A
N118        N148   1.327       .  A
N118       Co151   2.087       .  S
N119        N137   1.321       .  A
N119        N155   1.322       .  A
N120        C149   1.352       .  A
N120        N130   1.327       .  A
H121        C146   1.081       .  S
N122        N143   1.326       .  A
N122       Co477   2.090       .  S
N123        N141   1.321       .  A
N123        N128   1.325       .  A
C124        C152   1.459       .  S
C124        N128   1.351       .  A
N125        C140   1.332       .  A
N125       Co147   2.065       .  S
C126        C129   1.465       .  S
C126        H160   1.081       .  S
C126        N154   1.345       .  A
C129        N150   1.346       .  A
N130        N136   1.321       .  A
N130       Co477   2.095       .  S
N131        C157   1.333       .  A
N131        N133   1.319       .  A
N131       Co147   2.065       .  S
N132        C146   1.344       .  A
N133        N161   1.330       .  A
N133       Co151   2.106       .  S
H134        C157   1.081       .  S
H135        C152   1.081       .  S
N137       Co514   2.099       .  S
N138        N150   1.322       .  A
N138        N154   1.320       .  A
N138       Co147   2.071       .  S
C139        C153   1.460       .  S
C139        N143   1.350       .  A
C140        C159   1.452       .  S
C140        H144   1.082       .  S
N141        C152   1.340       .  A
N141       Co514   2.085       .  S
C145        C157   1.452       .  S
C145        N161   1.356       .  A
Co147      Cl158   2.443       .  S
N148        C159   1.351       .  A
Co151       N500   2.100   1_554  S
Co151       N504   2.084   1_554  S
Co151      Cl158   2.458       .  S
Cl158      Co479   2.450   1_554  S
C162        C199   1.463       .  S
C162        N180   1.349       .  A
N163        N185   1.320       .  A
N163       N1632   1.324       .  A
N163       Co200   2.075       .  S
C164        C202   1.454       .  S
C164        H209   1.081       .  S
C164        N189   1.334       .  A
H165        C206   1.081       .  S
C166        C170   1.462       .  S
C166        H195   1.081       .  S
C166       N1642   1.342       .  A
Co167       N175   2.106       .  S
Co167       N183   2.087       .  S
Co167       N548   2.086   1_554  S
Co167       N570   2.103   1_554  S
Co167      Cl211   2.459       .  S
N168       C1658   1.331       .  A
N168        N175   1.319       .  A
N168       Co169   2.054       .  S
Co169       N172   2.074       .  S
Co169       N189   2.070       .  S
Co169       N176   2.056       .  S
Co169      Cl211   2.439       .  S
C170        N208   1.347       .  A
N171        N178   1.320       .  A
N171       N1653   1.328       .  A
N171       Co567   2.097       .  S
N172        N190   1.320       .  A
N172       N1660   1.322       .  A
N173        C202   1.351       .  A
N173        N183   1.327       .  A
H174        C199   1.082       .  S
N175       N1648   1.329       .  A
N176        N194   1.319       .  A
N176        N181   1.319       .  A
C177        C205   1.467       .  S
C177        N181   1.343       .  A
N178       C1645   1.332       .  A
N178       Co200   2.062       .  S
C179        C182   1.462       .  S
C179        H213   1.082       .  S
C179        N207   1.344       .  A
N180       N1615   1.325       .  A
C182        N203   1.346       .  A
N183        N189   1.319       .  A
N184        C210   1.336       .  A
N184        N186   1.320       .  A
N184       Co200   2.070       .  S
N185       C1651   1.343       .  A
N185       Co530   2.095       .  S
N186        N214   1.327       .  A
N186       Co567   2.093       .  S
H187        C210   1.081       .  S
H188        C205   1.081       .  S
N190       C1618   1.343       .  A
N190       Co204   2.091       .  S
N191        N203   1.320       .  A
N191        N207   1.320       .  A
N191       Co200   2.070       .  S
C192        C206   1.450       .  S
C192        N196   1.354       .  A
C193        C212   1.453       .  S
C193        H197   1.082       .  S
C193       N1630   1.333       .  A
N194        C205   1.345       .  A
N194       Co204   2.099       .  S
N196       N1627   1.329       .  A
C198        C210   1.453       .  S
C198        N214   1.352       .  A
C199       N1637   1.342       .  A
Co200      Cl574   2.444       .  S
N201        C212   1.353       .  A
N201       N1623   1.328       .  A
Co204       N534   2.098   1_554  S
Co204       N549   2.091   1_554  S
Co204      Cl211   2.458       .  S
C206       N1620   1.332       .  A
N207       Co530   2.093       .  S
N208       N1624   1.323       .  A
Cl211      Co563   2.442   1_554  S
C215        C252   1.466       .  S
C215        N233   1.347       .  A
N216        N233   1.322       .  A
N216        N238   1.319       .  A
N216       Co253   2.072       .  S
C217        C255   1.451       .  S
C217        H262   1.081       .  S
C217        N242   1.333       .  A
H218        C259   1.081       .  S
C219        C223   1.463       .  S
C219        H248   1.081       .  S
C219        N243   1.343       .  A
Co220       N228   2.087       .  S
Co220       N601   2.100   1_554  S
Co220      N1349   2.091   1_554  S
Co220       N962   2.094       .  S
Co220      Cl264   2.459       .  S
N221        C259   1.336       .  A
N221        N228   1.321       .  A
N221       Co222   2.080       .  S
Co222       N225   2.068       .  S
Co222       N968   2.064       .  S
Co222       N955   2.088       .  S
Co222      Cl264   2.442       .  S
C223        N261   1.346       .  A
N224        N231   1.320       .  A
N224        N254   1.327       .  A
N224       Co620   2.091       .  S
N225        N243   1.319       .  A
N225        N261   1.321       .  A
N226        C255   1.355       .  A
N226        N236   1.328       .  A
H227        C252   1.082       .  S
N228        N249   1.326       .  A
N229        N247   1.319       .  A
N229        N234   1.323       .  A
N229       Co948   2.081   1_545  S
C230        C258   1.462       .  S
C230        N234   1.349       .  A
N231        C246   1.333       .  A
N231       Co253   2.067       .  S
C232        C235   1.466       .  S
C232        H266   1.082       .  S
C232        N260   1.346       .  A
C235        N256   1.345       .  A
N236        N242   1.320       .  A
N236       Co946   2.103   1_545  S
N237        C263   1.335       .  A
N237        N239   1.320       .  A
N237       Co979   2.068   1_545  S
N238        C252   1.346       .  A
N238       Co583   2.099       .  S
N239        N267   1.329       .  A
N239      Co1346   2.101   1_545  S
H240        C263   1.082       .  S
H241        C258   1.081       .  S
N242       Co948   2.062   1_545  S
N243       Co257   2.089       .  S
N244        N256   1.320       .  A
N244        N260   1.320       .  A
N244       Co979   2.068   1_545  S
C245        C259   1.456       .  S
C245        N249   1.350       .  A
C246        C265   1.453       .  S
C246        H250   1.082       .  S
N247        C258   1.344       .  A
N247       Co983   2.087   1_545  S
C251        C263   1.452       .  S
C251        N267   1.354       .  A
Co253       N963   2.063       .  S
Co253       N970   2.069       .  S
Co253      Cl627   2.437       .  S
N254        C265   1.352       .  A
Co257       N587   2.087   1_554  S
Co257      N1328   2.091   1_554  S
Co257       N973   2.086       .  S
Co257      Cl264   2.458       .  S
N260      Co1309   2.098   1_545  S
Cl264      Co616   2.438   1_554  S
C268        C273   1.386       .  A
C268        C269   1.400       .  A
C268        S274   1.703       .  A
C269        C270   1.400       .  A
C269        H280   1.083       .  S
C270        C279   1.369       .  A
C270        C271   1.386       .  A
C271        C272   1.406       .  A
C271        S277   1.710       .  A
C272        C273   1.406       .  A
C272        H281   1.083       .  S
C273        C276   1.376       .  A
S274        C275   1.726       .  A
C275        C276   1.391       .  A
C276        H282   1.082       .  S
S277        C278   1.730       .  A
C278        C279   1.387       .  A
C279        H283   1.083       .  S
C284        C289   1.385       .  A
C284        C285   1.399       .  A
C284        S290   1.702       .  A
C285        C286   1.401       .  A
C285        H296   1.083       .  S
C286        C295   1.367       .  A
C286        C287   1.385       .  A
C287        C288   1.403       .  A
C287        S293   1.708       .  A
C288        C289   1.404       .  A
C288        H297   1.083       .  S
C289        C292   1.372       .  A
S290        C291   1.727       .  A
C291        C292   1.392       .  A
C292        H298   1.082       .  S
S293        C294   1.728       .  A
C294        C295   1.391       .  A
C295        H299   1.082       .  S
C300        C305   1.385       .  A
C300        C301   1.399       .  A
C300        S306   1.702       .  A
C301        C302   1.400       .  A
C301        H312   1.083       .  S
C302        C311   1.369       .  A
C302        C303   1.384       .  A
C303        C304   1.407       .  A
C303        S309   1.712       .  A
C304        C305   1.408       .  A
C304        H313   1.082       .  S
C305        C308   1.376       .  A
S306        C307   1.727       .  A
C307        C308   1.396       .  A
C308        H314   1.082       .  S
S309        C310   1.733       .  A
C310        C311   1.391       .  A
C311        H315   1.081       .  S
C316        C321   1.385       .  A
C316        C317   1.404       .  A
C316        S322   1.704       .  A
C317        C318   1.403       .  A
C317        H328   1.083       .  S
C318        C327   1.375       .  A
C318        C319   1.386       .  A
C319        C320   1.400       .  A
C319        S325   1.698       .  A
C320        C321   1.400       .  A
C320        H329   1.083       .  S
C321        C324   1.372       .  A
S322        C323   1.732       .  A
C323        C324   1.390       .  A
C324        H330   1.082       .  S
S325        C326   1.730       .  A
C326        C327   1.391       .  A
C327        H331   1.082       .  S
C332        C337   1.385       .  A
C332        C333   1.404       .  A
C332        S338   1.705       .  A
C333        C334   1.403       .  A
C333        H344   1.083       .  S
C334        C343   1.375       .  A
C334        C335   1.386       .  A
C335        C336   1.402       .  A
C335        S341   1.701       .  A
C336        C337   1.402       .  A
C336        H345   1.083       .  S
C337        C340   1.372       .  A
S338        C339   1.730       .  A
C339        C340   1.391       .  A
C340        H346   1.082       .  S
S341        C342   1.731       .  A
C342        C343   1.391       .  A
C343        H347   1.082       .  S
C348        C353   1.385       .  A
C348        C349   1.402       .  A
C348        S354   1.708       .  A
C349        C350   1.403       .  A
C349        H360   1.083       .  S
C350        C359   1.370       .  A
C350        C351   1.385       .  A
C351        C352   1.401       .  A
C351        S357   1.707       .  A
C352        C353   1.403       .  A
C352        H361   1.083       .  S
C353        C356   1.369       .  A
S354        C355   1.726       .  A
C355        C356   1.391       .  A
C356        H362   1.083       .  S
S357        C358   1.728       .  A
C358        C359   1.391       .  A
C359        H363   1.082       .  S
C364        C365   1.403       .  A
C364        C369   1.405       .  A
C364        C718   1.487       .  S
C365        C366   1.402       .  A
C365        H370   1.083       .  S
C366        C367   1.401       .  A
C366        C608   1.469       .  S
C367        C368   1.402       .  A
C367        H371   1.084       .  S
C368        C369   1.408       .  A
C368        C472   1.473       .  S
C369        H372   1.083       .  S
C373        C374   1.405       .  A
C373        C378   1.407       .  A
C373        C721   1.490       .  S
C374        C375   1.404       .  A
C374        H379   1.082       .  S
C375        C376   1.405       .  A
C375        C502   1.474       .  S
C376        C377   1.404       .  A
C376        H380   1.084       .  S
C377        C378   1.407       .  A
C377        C578   1.480       .  S
C378        H381   1.083       .  S
C382        C383   1.412       .  A
C382        C387   1.400       .  A
C382        C705   1.494       .  S
C383        C384   1.414       .  A
C383        H388   1.082       .  S
C384        C385   1.404       .  A
C384        C525   1.479       .  S
C385        C386   1.398       .  A
C385        H389   1.084       .  S
C386        C387   1.398       .  A
C386        C628   1.467       .  S
C387        H390   1.081       .  S
C391        C392   1.406       .  A
C391        C396   1.404       .  A
C391        C702   1.493       .  S
C392        C393   1.407       .  A
C392        H397   1.082       .  S
C393        C394   1.404       .  A
C393        C586   1.473       .  S
C394        C395   1.400       .  A
C394        H398   1.084       .  S
C395        C396   1.405       .  A
C395        C555   1.474       .  S
C396        H399   1.081       .  S
C400        C401   1.406       .  A
C400        C405   1.403       .  A
C400        C689   1.487       .  S
C401        C402   1.408       .  A
C401        H406   1.083       .  S
C402        C403   1.404       .  A
C402        C533   1.471       .  S
C403        C404   1.398       .  A
C403        H407   1.084       .  S
C404        C405   1.401       .  A
C404        C522   1.471       .  S
C405        H408   1.083       .  S
C409        C410   1.400       .  A
C409        C414   1.409       .  A
C409        C686   1.489       .  S
C410        C411   1.401       .  A
C410        H415   1.082       .  S
C411        C412   1.402       .  A
C411        C575   1.471       .  S
C412        C413   1.405       .  A
C412        H416   1.084       .  S
C413        C414   1.410       .  A
C413        C480   1.479       .  S
C414        H417   1.083       .  S
C418        C419   1.405       .  A
C418        C423   1.401       .  A
C418        C670   1.488       .  S
C419        C420   1.409       .  A
C419        H424   1.083       .  S
C420        C421   1.403       .  A
C420        C598   1.475       .  S
C421        C422   1.400       .  A
C421        H425   1.083       .  S
C422        C423   1.403       .  A
C422        C561   1.470       .  S
C423        H426   1.082       .  S
C427        C428   1.404       .  A
C427        C432   1.406       .  A
C427        C673   1.489       .  S
C428        C429   1.405       .  A
C428        H433   1.083       .  S
C429        C430   1.398       .  A
C429        C540   1.470       .  S
C430        C431   1.401       .  A
C430        H434   1.084       .  S
C431        C432   1.408       .  A
C431        C618   1.470       .  S
C432        H435   1.082       .  S
C436        C437   1.406       .  A
C436        C441   1.407       .  A
C436        C657   1.497       .  S
C437        C438   1.407       .  A
C437        H442   1.082       .  S
C438        C439   1.401       .  A
C438        C492   1.473       .  S
C439        C440   1.402       .  A
C439        H443   1.084       .  S
C440        C441   1.405       .  A
C440        C565   1.473       .  S
C441        H444   1.080       .  S
C445        C446   1.409       .  A
C445        C450   1.407       .  A
C445        C654   1.499       .  S
C446        C447   1.408       .  A
C446        H451   1.082       .  S
C447        C448   1.402       .  A
C447        C545   1.479       .  S
C448        C449   1.403       .  A
C448        H452   1.084       .  S
C449        C450   1.405       .  A
C449        C512   1.473       .  S
C450        H453   1.080       .  S
C454        C455   1.408       .  A
C454        C459   1.402       .  A
C454        C638   1.493       .  S
C455        C456   1.409       .  A
C455        H460   1.081       .  S
C456        C457   1.404       .  A
C456        C487   1.471       .  S
C457        C458   1.397       .  A
C457        H461   1.084       .  S
C458        C459   1.401       .  A
C458        C614   1.470       .  S
C459        H462   1.081       .  S
C463        C464   1.408       .  A
C463        C468   1.406       .  A
C463        C641   1.495       .  S
C464        C465   1.407       .  A
C464        H469   1.081       .  S
C465        C466   1.403       .  A
C465        C593   1.472       .  S
C466        C467   1.399       .  A
C466        H470   1.084       .  S
C467        C468   1.406       .  A
C467        C508   1.475       .  S
C468        H471   1.081       .  S
C472        C509   1.465       .  S
C472        N490   1.345       .  A
N473        N490   1.321       .  A
N473        N495   1.320       .  A
N473       Co510   2.066       .  S
C474        C512   1.456       .  S
C474        H519   1.082       .  S
C474        N499   1.336       .  A
H475        C516   1.082       .  S
C476        C480   1.464       .  S
C476        H505   1.081       .  S
C476        N500   1.345       .  A
Co477       N495   2.097       .  S
Co477       N517   2.096       .  S
Co477      Cl521   2.455       .  S
N478        C516   1.339       .  A
N478        N485   1.321       .  A
N478       Co479   2.083       .  S
Co479       N482   2.081       .  S
Co479       N499   2.075       .  S
Co479       N486   2.083       .  S
C480        N518   1.349       .  A
N481        N488   1.320       .  A
N481        N511   1.328       .  A
N481       Co514   2.093       .  S
N482        N500   1.321       .  A
N482        N518   1.324       .  A
N483        C512   1.352       .  A
N483        N493   1.327       .  A
H484        C509   1.081       .  S
N485        N506   1.326       .  A
N486        N504   1.321       .  A
N486        N491   1.324       .  A
C487        C515   1.460       .  S
C487        N491   1.348       .  A
N488        C503   1.334       .  A
N488       Co510   2.068       .  S
C489        C492   1.466       .  S
C489        H523   1.081       .  S
C489        N517   1.346       .  A
C492        N513   1.345       .  A
N493        N499   1.320       .  A
N494        C520   1.334       .  A
N494        N496   1.319       .  A
N494       Co510   2.062       .  S
N495        C509   1.345       .  A
N496        N524   1.329       .  A
N496       Co514   2.106       .  S
H497        C520   1.082       .  S
H498        C515   1.081       .  S
N501        N513   1.320       .  A
N501        N517   1.319       .  A
N501       Co510   2.067       .  S
C502        C516   1.459       .  S
C502        N506   1.350       .  A
C503        C522   1.453       .  S
C503        H507   1.082       .  S
N504        C515   1.341       .  A
C508        C520   1.451       .  S
C508        N524   1.356       .  A
Co510      Cl521   2.444       .  S
N511        C522   1.353       .  A
Co514      Cl521   2.456       .  S
C525        C562   1.465       .  S
C525        N543   1.348       .  A
N526       N1995   1.324       .  A
N526        N548   1.320       .  A
N526       Co563   2.079       .  S
C527        C565   1.455       .  S
C527        H572   1.081       .  S
C527        N552   1.336       .  A
H528        C569   1.082       .  S
C529        C533   1.459       .  S
C529        H558   1.082       .  S
C529       N2005   1.340       .  A
Co530       N538   2.100       .  S
Co530       N546   2.091       .  S
Co530      Cl574   2.457       .  S
N531       C2021   1.333       .  A
N531        N538   1.320       .  A
N531       Co532   2.064       .  S
Co532       N535   2.075       .  S
Co532       N552   2.073       .  S
Co532       N539   2.065       .  S
Co532      Cl574   2.444       .  S
C533        N571   1.349       .  A
N534        N541   1.321       .  A
N534       N2016   1.328       .  A
N535        N553   1.320       .  A
N535       N2023   1.323       .  A
N536        C565   1.352       .  A
N536        N546   1.327       .  A
H537        C562   1.082       .  S
N538       N2011   1.328       .  A
N539        N557   1.320       .  A
N539        N544   1.320       .  A
C540        C568   1.464       .  S
C540        N544   1.344       .  A
N541       C2008   1.335       .  A
N541       Co563   2.071       .  S
C542        C545   1.467       .  S
C542        H576   1.082       .  S
C542        N570   1.347       .  A
N543       N1978   1.325       .  A
C545        N566   1.346       .  A
N546        N552   1.320       .  A
N547        C573   1.333       .  A
N547        N549   1.320       .  A
N547       Co563   2.066       .  S
N548       C2014   1.340       .  A
N549        N577   1.327       .  A
H550        C573   1.081       .  S
H551        C568   1.082       .  S
N553       C1981   1.342       .  A
N553       Co567   2.092       .  S
N554        N566   1.322       .  A
N554        N570   1.320       .  A
N554       Co563   2.073       .  S
C555        C569   1.451       .  S
C555        N559   1.355       .  A
C556        C575   1.453       .  S
C556        H560   1.082       .  S
C556       N1993   1.333       .  A
N557        C568   1.345       .  A
N557       Co567   2.095       .  S
N559       N1990   1.329       .  A
C561        C573   1.452       .  S
C561        N577   1.353       .  A
C562       N2000   1.343       .  A
N564        C575   1.352       .  A
N564       N1986   1.328       .  A
Co567      Cl574   2.457       .  S
C569       N1983   1.333       .  A
N571       N1987   1.324       .  A
C578        C615   1.466       .  S
C578        N596   1.348       .  A
N579        N596   1.323       .  A
N579        N601   1.319       .  A
N579       Co616   2.079       .  S
C580        C618   1.453       .  S
C580        H625   1.081       .  S
C580        N605   1.337       .  A
H581        C622   1.081       .  S
C582        C586   1.462       .  S
C582        H611   1.081       .  S
C582        N606   1.343       .  A
Co583       N591   2.084       .  S
Co583       N986   2.089       .  S
Co583      N1325   2.095       .  S
Co583      Cl627   2.459       .  S
N584        C622   1.337       .  A
N584        N591   1.321       .  A
N584       Co585   2.078       .  S
Co585       N588   2.074       .  S
Co585      N1331   2.066       .  S
Co585      N1318   2.082       .  S
Co585      Cl627   2.443       .  S
C586        N624   1.347       .  A
N587        N594   1.320       .  A
N587        N617   1.327       .  A
N588        N606   1.320       .  A
N588        N624   1.322       .  A
N589        C618   1.352       .  A
N589        N599   1.326       .  A
H590        C615   1.082       .  S
N591        N612   1.326       .  A
N592        N610   1.321       .  A
N592        N597   1.322       .  A
N592      Co1311   2.078   1_545  S
C593        C621   1.461       .  S
C593        N597   1.348       .  A
N594        C609   1.332       .  A
N594       Co616   2.064       .  S
C595        C598   1.465       .  S
C595        H629   1.082       .  S
C595        N623   1.344       .  A
C598        N619   1.346       .  A
N599        N605   1.320       .  A
N599      Co1309   2.094   1_545  S
N600        C626   1.331       .  A
N600        N602   1.319       .  A
N600      Co1342   2.059   1_545  S
N601        C615   1.347       .  A
N602        N630   1.329       .  A
N602       Co983   2.098   1_546  S
H603        C626   1.081       .  S
H604        C621   1.081       .  S
N605      Co1311   2.069   1_545  S
N606       Co620   2.090       .  S
N607        N619   1.322       .  A
N607        N623   1.319       .  A
N607      Co1342   2.072   1_545  S
C608        C622   1.456       .  S
C608        N612   1.350       .  A
C609        C628   1.453       .  S
C609        H613   1.082       .  S
N610        C621   1.342       .  A
N610      Co1346   2.089   1_545  S
C614        C626   1.449       .  S
C614        N630   1.355       .  A
Co616      N1326   2.072       .  S
Co616      N1333   2.065       .  S
N617        C628   1.351       .  A
Co620       N965   2.096       .  S
Co620      N1336   2.090       .  S
Co620      Cl627   2.459       .  S
N623       Co946   2.094   1_546  S
C631        C636   1.385       .  A
C631        C632   1.401       .  A
C631        S637   1.699       .  A
C632        C633   1.401       .  A
C632        H643   1.083       .  S
C633        C642   1.372       .  A
C633        C634   1.384       .  A
C634        C635   1.404       .  A
C634        S640   1.704       .  A
C635        C636   1.404       .  A
C635        H644   1.083       .  S
C636        C639   1.375       .  A
S637        C638   1.731       .  A
C638        C639   1.392       .  A
C639        H645   1.081       .  S
S640        C641   1.731       .  A
C641        C642   1.393       .  A
C642        H646   1.081       .  S
C647        C652   1.384       .  A
C647        C648   1.402       .  A
C647        S653   1.705       .  A
C648        C649   1.403       .  A
C648        H659   1.083       .  S
C649        C658   1.371       .  A
C649        C650   1.384       .  A
C650        C651   1.404       .  A
C650        S656   1.708       .  A
C651        C652   1.406       .  A
C651        H660   1.083       .  S
C652        C655   1.373       .  A
S653        C654   1.730       .  A
C654        C655   1.396       .  A
C655        H661   1.081       .  S
S656        C657   1.732       .  A
C657        C658   1.393       .  A
C658        H662   1.081       .  S
C663        C668   1.385       .  A
C663        C664   1.405       .  A
C663        S669   1.711       .  A
C664        C665   1.406       .  A
C664        H675   1.083       .  S
C665        C674   1.374       .  A
C665        C666   1.386       .  A
C666        C667   1.400       .  A
C666        S672   1.704       .  A
C667        C668   1.402       .  A
C667        H676   1.083       .  S
C668        C671   1.368       .  A
S669        C670   1.728       .  A
C670        C671   1.390       .  A
C671        H677   1.082       .  S
S672        C673   1.727       .  A
C673        C674   1.392       .  A
C674        H678   1.082       .  S
C679        C684   1.385       .  A
C679        C680   1.406       .  A
C679        S685   1.706       .  A
C680        C681   1.405       .  A
C680        H691   1.083       .  S
C681        C690   1.375       .  A
C681        C682   1.386       .  A
C682        C683   1.399       .  A
C682        S688   1.699       .  A
C683        C684   1.399       .  A
C683        H692   1.083       .  S
C684        C687   1.370       .  A
S685        C686   1.733       .  A
C686        C687   1.387       .  A
C687        H693   1.082       .  S
S688        C689   1.726       .  A
C689        C690   1.392       .  A
C690        H694   1.083       .  S
C695        C700   1.385       .  A
C695        C696   1.404       .  A
C695        S701   1.704       .  A
C696        C697   1.403       .  A
C696        H707   1.083       .  S
C697        C706   1.376       .  A
C697        C698   1.385       .  A
C698        C699   1.402       .  A
C698        S704   1.699       .  A
C699        C700   1.401       .  A
C699        H708   1.083       .  S
C700        C703   1.372       .  A
S701        C702   1.731       .  A
C702        C703   1.392       .  A
C703        H709   1.082       .  S
S704        C705   1.733       .  A
C705        C706   1.391       .  A
C706        H710   1.082       .  S
C711        C716   1.385       .  A
C711        C712   1.404       .  A
C711        S717   1.711       .  A
C712        C713   1.406       .  A
C712        H723   1.083       .  S
C713        C722   1.373       .  A
C713        C714   1.385       .  A
C714        C715   1.400       .  A
C714        S720   1.705       .  A
C715        C716   1.402       .  A
C715        H724   1.083       .  S
C716        C719   1.369       .  A
S717        C718   1.728       .  A
C718        C719   1.390       .  A
C719        H725   1.083       .  S
S720        C721   1.727       .  A
C721        C722   1.393       .  A
C722        H726   1.082       .  S
C727        C728   1.403       .  A
C727        C732   1.406       .  A
C727       C1081   1.489       .  S
C728        C729   1.402       .  A
C728        H733   1.082       .  S
C729        C730   1.402       .  A
C729        C971   1.472       .  S
C730        C731   1.404       .  A
C730        H734   1.084       .  S
C731        C732   1.409       .  A
C731        C835   1.476       .  S
C732        H735   1.083       .  S
C736        C737   1.406       .  A
C736        C741   1.404       .  A
C736       C1084   1.489       .  S
C737        C738   1.404       .  A
C737        H742   1.082       .  S
C738        C739   1.404       .  A
C738        C865   1.473       .  S
C739        C740   1.402       .  A
C739        H743   1.084       .  S
C740        C741   1.405       .  A
C740        C941   1.474       .  S
C741        H744   1.083       .  S
C745        C746   1.412       .  A
C745        C750   1.400       .  A
C745       C1068   1.492       .  S
C746        C747   1.414       .  A
C746        H751   1.082       .  S
C747        C748   1.405       .  A
C747        C888   1.478       .  S
C748        C749   1.397       .  A
C748        H752   1.084       .  S
C749        C750   1.399       .  A
C749        C991   1.469       .  S
C750        H753   1.082       .  S
C754        C755   1.406       .  A
C754        C759   1.404       .  A
C754       C1065   1.492       .  S
C755        C756   1.408       .  A
C755        H760   1.083       .  S
C756        C757   1.405       .  A
C756        C949   1.475       .  S
C757        C758   1.402       .  A
C757        H761   1.084       .  S
C758        C759   1.406       .  A
C758        C918   1.477       .  S
C759        H762   1.082       .  S
C763        C764   1.407       .  A
C763        C768   1.401       .  A
C763       C1052   1.487       .  S
C764        C765   1.409       .  A
C764        H769   1.082       .  S
C765        C766   1.401       .  A
C765        C896   1.469       .  S
C766        C767   1.396       .  A
C766        H770   1.084       .  S
C767        C768   1.398       .  A
C767        C885   1.465       .  S
C768        H771   1.082       .  S
C772        C773   1.400       .  A
C772        C777   1.408       .  A
C772       C1049   1.489       .  S
C773        C774   1.400       .  A
C773        H778   1.082       .  S
C774        C775   1.400       .  A
C774        C938   1.469       .  S
C775        C776   1.405       .  A
C775        H779   1.084       .  S
C776        C777   1.408       .  A
C776        C843   1.476       .  S
C777        H780   1.082       .  S
C781        C782   1.404       .  A
C781        C786   1.408       .  A
C781       C1033   1.494       .  S
C782        C783   1.404       .  A
C782        H787   1.082       .  S
C783        C784   1.400       .  A
C783        C961   1.472       .  S
C784        C785   1.402       .  A
C784        H788   1.084       .  S
C785        C786   1.407       .  A
C785        C924   1.474       .  S
C786        H789   1.081       .  S
C790        C791   1.408       .  A
C790        C795   1.404       .  A
C790       C1036   1.496       .  S
C791        C792   1.411       .  A
C791        H796   1.083       .  S
C792        C793   1.401       .  A
C792        C903   1.477       .  S
C793        C794   1.400       .  A
C793        H797   1.084       .  S
C794        C795   1.404       .  A
C794        C981   1.471       .  S
C795        H798   1.079       .  S
C799        C800   1.406       .  A
C799        C804   1.406       .  A
C799       C1020   1.494       .  S
C800        C801   1.404       .  A
C800        H805   1.082       .  S
C801        C802   1.399       .  A
C801        C855   1.469       .  S
C802        C803   1.399       .  A
C802        H806   1.084       .  S
C803        C804   1.402       .  A
C803        C928   1.467       .  S
C804        H807   1.079       .  S
C808        C809   1.407       .  A
C808        C813   1.407       .  A
C808       C1017   1.497       .  S
C809        C810   1.406       .  A
C809        H814   1.082       .  S
C810        C811   1.402       .  A
C810        C908   1.476       .  S
C811        C812   1.402       .  A
C811        H815   1.084       .  S
C812        C813   1.403       .  A
C812        C875   1.473       .  S
C813        H816   1.079       .  S
C817        C818   1.406       .  A
C817        C822   1.402       .  A
C817       C1001   1.484       .  S
C818        C819   1.408       .  A
C818        H823   1.083       .  S
C819        C820   1.404       .  A
C819        C850   1.471       .  S
C820        C821   1.398       .  A
C820        H824   1.084       .  S
C821        C822   1.401       .  A
C821        C977   1.470       .  S
C822        H825   1.083       .  S
C826        C827   1.404       .  A
C826        C831   1.401       .  A
C826       C1004   1.485       .  S
C827        C828   1.406       .  A
C827        H832   1.083       .  S
C828        C829   1.408       .  A
C828        C956   1.477       .  S
C829        C830   1.404       .  A
C829        H833   1.084       .  S
C830        C831   1.406       .  A
C830        C871   1.478       .  S
C831        H834   1.082       .  S
C835        C872   1.464       .  S
C835        N853   1.348       .  A
N836        N853   1.323       .  A
N836        N858   1.319       .  A
N836       Co873   2.074       .  S
C837        C875   1.457       .  S
C837        H882   1.082       .  S
C837        N862   1.336       .  A
H838        C879   1.082       .  S
C839        C843   1.462       .  S
C839        H868   1.081       .  S
C839        N863   1.343       .  A
Co840       N858   2.093       .  S
Co840      N1211   2.084   1_554  S
Co840       N880   2.088       .  S
Co840      N1219   2.088   1_554  S
Co840      Cl884   2.453       .  S
N841        C879   1.339       .  A
N841        N848   1.321       .  A
N841       Co842   2.083       .  S
Co842       N845   2.079       .  S
Co842       N862   2.076       .  S
Co842       N849   2.085       .  S
Co842     Cl1247   2.452       .  S
C843        N881   1.348       .  A
N844        N851   1.320       .  A
N844        N874   1.326       .  A
N844       Co877   2.089       .  S
N845        N863   1.321       .  A
N845        N881   1.324       .  A
N846        C875   1.351       .  A
N846        N856   1.327       .  A
H847        C872   1.081       .  S
N848        N869   1.326       .  A
N848      Co1203   2.087       .  S
N849        N867   1.321       .  A
N849        N854   1.324       .  A
C850        C878   1.458       .  S
C850        N854   1.349       .  A
N851        C866   1.332       .  A
N851       Co873   2.063       .  S
C852        C855   1.462       .  S
C852        H886   1.081       .  S
C852        N880   1.343       .  A
C855        N876   1.345       .  A
N856        N862   1.321       .  A
N856      Co1203   2.091       .  S
N857        C883   1.334       .  A
N857        N859   1.319       .  A
N857       Co873   2.068       .  S
N858        C872   1.345       .  A
N859        N887   1.331       .  A
N859       Co877   2.104       .  S
H860        C883   1.081       .  S
H861        C878   1.081       .  S
N863      Co1240   2.097       .  S
N864        N876   1.320       .  A
N864        N880   1.319       .  A
N864       Co873   2.067       .  S
C865        C879   1.458       .  S
C865        N869   1.350       .  A
C866        C885   1.452       .  S
C866        H870   1.082       .  S
N867        C878   1.339       .  A
N867      Co1240   2.082       .  S
C871        C883   1.452       .  S
C871        N887   1.356       .  A
Co873      Cl884   2.442       .  S
N874        C885   1.351       .  A
Co877      N1226   2.099   1_554  S
Co877      N1230   2.088   1_554  S
Co877      Cl884   2.455       .  S
Cl884     Co1205   2.450   1_554  S
C888        C925   1.464       .  S
C888        N906   1.349       .  A
N889       N2358   1.324       .  A
N889        N911   1.320       .  A
N889       Co926   2.083       .  S
C890        C928   1.454       .  S
C890        H935   1.082       .  S
C890        N915   1.335       .  A
H891        C932   1.081       .  S
C892        C896   1.461       .  S
C892        H921   1.081       .  S
C892       N2368   1.341       .  A
Co893      N1274   2.088   1_554  S
Co893       N901   2.101       .  S
Co893      N1296   2.098   1_554  S
Co893       N909   2.083       .  S
Co893      Cl937   2.456       .  S
N894       C2384   1.333       .  A
N894        N901   1.321       .  A
N894       Co895   2.065       .  S
Co895       N898   2.075       .  S
Co895       N915   2.071       .  S
Co895       N902   2.069       .  S
Co895      Cl937   2.446       .  S
C896        N934   1.346       .  A
N897        N904   1.321       .  A
N897       N2379   1.328       .  A
N897      Co1293   2.097       .  S
N898        N916   1.319       .  A
N898       N2386   1.324       .  A
N899        C928   1.349       .  A
N899        N909   1.325       .  A
H900        C925   1.082       .  S
N901       N2374   1.329       .  A
N902        N920   1.320       .  A
N902        N907   1.321       .  A
C903        C931   1.468       .  S
C903        N907   1.345       .  A
N904       C2371   1.335       .  A
N904       Co926   2.072       .  S
C905        C908   1.464       .  S
C905        H939   1.082       .  S
C905        N933   1.346       .  A
N906       N2341   1.325       .  A
C908        N929   1.347       .  A
N909        N915   1.320       .  A
N910        C936   1.338       .  A
N910        N912   1.320       .  A
N910       Co926   2.077       .  S
N911       C2377   1.343       .  A
N911      Co1256   2.091       .  S
N912        N940   1.327       .  A
N912      Co1293   2.094       .  S
H913        C936   1.081       .  S
H914        C931   1.082       .  S
N916       C2344   1.341       .  A
N916       Co930   2.086       .  S
N917        N929   1.321       .  A
N917        N933   1.320       .  A
N917       Co926   2.075       .  S
C918        C932   1.452       .  S
C918        N922   1.356       .  A
C919        C938   1.452       .  S
C919        H923   1.082       .  S
C919       N2356   1.332       .  A
N920        C931   1.347       .  A
N920       Co930   2.104       .  S
N922       N2353   1.330       .  A
C924        C936   1.455       .  S
C924        N940   1.352       .  A
C925       N2363   1.342       .  A
Co926     Cl1300   2.447       .  S
N927        C938   1.352       .  A
N927       N2349   1.328       .  A
Co930      N1260   2.097   1_554  S
Co930      N1275   2.092   1_554  S
Co930      Cl937   2.455       .  S
C932       N2346   1.334       .  A
N933      Co1256   2.098       .  S
N934       N2350   1.322       .  A
Cl937     Co1289   2.447   1_554  S
C941        C978   1.464       .  S
C941        N959   1.346       .  A
N942        N959   1.321       .  A
N942        N964   1.319       .  A
N942       Co979   2.071       .  S
C943        C981   1.454       .  S
C943        H988   1.081       .  S
C943        N968   1.334       .  A
H944        C985   1.081       .  S
C945        C949   1.464       .  S
C945        H974   1.081       .  S
C945        N969   1.344       .  A
Co946      N1327   2.103   1_554  S
Co946       N954   2.090       .  S
Co946      Cl990   2.459       .  S
N947        C985   1.335       .  A
N947        N954   1.320       .  A
N947       Co948   2.075       .  S
Co948       N951   2.072       .  S
Co948      Cl990   2.442       .  S
C949        N987   1.347       .  A
N950        N957   1.320       .  A
N950        N980   1.328       .  A
N950      Co1346   2.091       .  S
N951        N969   1.320       .  A
N951        N987   1.322       .  A
N952        C981   1.352       .  A
N952        N962   1.327       .  A
H953        C978   1.082       .  S
N954        N975   1.327       .  A
N955        N973   1.320       .  A
N955        N960   1.324       .  A
C956        C984   1.460       .  S
C956        N960   1.351       .  A
N957        C972   1.332       .  A
N957       Co979   2.065       .  S
C958        C961   1.464       .  S
C958        H992   1.082       .  S
C958        N986   1.345       .  A
C961        N982   1.346       .  A
N962        N968   1.320       .  A
N963        C989   1.333       .  A
N963        N965   1.319       .  A
N964        C978   1.346       .  A
N964      Co1309   2.093       .  S
N965        N993   1.329       .  A
H966        C989   1.082       .  S
H967        C984   1.081       .  S
N969       Co983   2.096       .  S
N970        N982   1.319       .  A
N970        N986   1.319       .  A
C971        C985   1.455       .  S
C971        N975   1.352       .  A
C972        C991   1.452       .  S
C972        H976   1.082       .  S
N973        C984   1.343       .  A
C977        C989   1.450       .  S
C977        N993   1.354       .  A
Co979     Cl1353   2.439       .  S
N980        C991   1.352       .  A
Co983      N1313   2.087   1_554  S
Co983      Cl990   2.460       .  S
Cl990     Co1342   2.440   1_554  S
C994        C999   1.386       .  A
C994        C995   1.399       .  A
C994       S1000   1.700       .  A
C995        C996   1.399       .  A
C995       H1006   1.083       .  S
C996       C1005   1.369       .  A
C996        C997   1.386       .  A
C997        C998   1.405       .  A
C997       S1003   1.708       .  A
C998        C999   1.405       .  A
C998       H1007   1.083       .  S
C999       C1002   1.375       .  A
S1000      C1001   1.726       .  A
C1001      C1002   1.391       .  A
C1002      H1008   1.082       .  S
S1003      C1004   1.729       .  A
C1004      C1005   1.387       .  A
C1005      H1009   1.083       .  S
C1010      C1015   1.383       .  A
C1010      C1011   1.401       .  A
C1010      S1016   1.704       .  A
C1011      C1012   1.403       .  A
C1011      H1022   1.083       .  S
C1012      C1021   1.368       .  A
C1012      C1013   1.383       .  A
C1013      C1014   1.399       .  A
C1013      S1019   1.702       .  A
C1014      C1015   1.401       .  A
C1014      H1023   1.083       .  S
C1015      C1018   1.367       .  A
S1016      C1017   1.732       .  A
C1017      C1018   1.394       .  A
C1018      H1024   1.080       .  S
S1019      C1020   1.730       .  A
C1020      C1021   1.394       .  A
C1021      H1025   1.080       .  S
C1026      C1031   1.384       .  A
C1026      C1027   1.401       .  A
C1026      S1032   1.703       .  A
C1027      C1028   1.402       .  A
C1027      H1038   1.083       .  S
C1028      C1037   1.369       .  A
C1028      C1029   1.384       .  A
C1029      C1030   1.404       .  A
C1029      S1035   1.709       .  A
C1030      C1031   1.405       .  A
C1030      H1039   1.082       .  S
C1031      C1034   1.373       .  A
S1032      C1033   1.730       .  A
C1033      C1034   1.393       .  A
C1034      H1040   1.081       .  S
S1035      C1036   1.730       .  A
C1036      C1037   1.394       .  A
C1037      H1041   1.081       .  S
C1042      C1047   1.385       .  A
C1042      C1043   1.403       .  A
C1042      S1048   1.702       .  A
C1043      C1044   1.403       .  A
C1043      H1054   1.083       .  S
C1044      C1053   1.373       .  A
C1044      C1045   1.386       .  A
C1045      C1046   1.398       .  A
C1045      S1051   1.697       .  A
C1046      C1047   1.398       .  A
C1046      H1055   1.083       .  S
C1047      C1050   1.369       .  A
S1048      C1049   1.732       .  A
C1049      C1050   1.388       .  A
C1050      H1056   1.082       .  S
S1051      C1052   1.728       .  A
C1052      C1053   1.391       .  A
C1053      H1057   1.082       .  S
C1058      C1063   1.386       .  A
C1058      C1059   1.405       .  A
C1058      S1064   1.706       .  A
C1059      C1060   1.404       .  A
C1059      H1070   1.083       .  S
C1060      C1069   1.377       .  A
C1060      C1061   1.386       .  A
C1061      C1062   1.403       .  A
C1061      S1067   1.701       .  A
C1062      C1063   1.402       .  A
C1062      H1071   1.083       .  S
C1063      C1066   1.373       .  A
S1064      C1065   1.730       .  A
C1065      C1066   1.391       .  A
C1066      H1072   1.083       .  S
S1067      C1068   1.731       .  A
C1068      C1069   1.390       .  A
C1069      H1073   1.082       .  S
C1074      C1079   1.385       .  A
C1074      C1075   1.403       .  A
C1074      S1080   1.709       .  A
C1075      C1076   1.404       .  A
C1075      H1086   1.083       .  S
C1076      C1085   1.371       .  A
C1076      C1077   1.385       .  A
C1077      C1078   1.400       .  A
C1077      S1083   1.705       .  A
C1078      C1079   1.402       .  A
C1078      H1087   1.083       .  S
C1079      C1082   1.368       .  A
S1080      C1081   1.728       .  A
C1081      C1082   1.391       .  A
C1082      H1088   1.082       .  S
S1083      C1084   1.728       .  A
C1084      C1085   1.392       .  A
C1085      H1089   1.082       .  S
C1090      C1091   1.404       .  A
C1090      C1095   1.403       .  A
C1090      C1444   1.487       .  S
C1091      C1092   1.403       .  A
C1091      H1096   1.082       .  S
C1092      C1093   1.402       .  A
C1092      C1334   1.472       .  S
C1093      C1094   1.402       .  A
C1093      H1097   1.084       .  S
C1094      C1095   1.407       .  A
C1094      C1198   1.472       .  S
C1095      H1098   1.083       .  S
C1099      C1100   1.404       .  A
C1099      C1104   1.407       .  A
C1099      C1447   1.489       .  S
C1100      C1101   1.403       .  A
C1100      H1105   1.082       .  S
C1101      C1102   1.402       .  A
C1101      C1228   1.469       .  S
C1102      C1103   1.401       .  A
C1102      H1106   1.084       .  S
C1103      C1104   1.407       .  A
C1103      C1304   1.474       .  S
C1104      H1107   1.083       .  S
C1108      C1109   1.410       .  A
C1108      C1113   1.401       .  A
C1108      C1431   1.489       .  S
C1109      C1110   1.413       .  A
C1109      H1114   1.083       .  S
C1110      C1111   1.405       .  A
C1110      C1251   1.479       .  S
C1111      C1112   1.401       .  A
C1111      H1115   1.084       .  S
C1112      C1113   1.400       .  A
C1112      C1354   1.472       .  S
C1113      H1116   1.083       .  S
C1117      C1118   1.406       .  A
C1117      C1122   1.403       .  A
C1117      C1428   1.491       .  S
C1118      C1119   1.408       .  A
C1118      H1123   1.083       .  S
C1119      C1120   1.404       .  A
C1119      C1312   1.475       .  S
C1120      C1121   1.401       .  A
C1120      H1124   1.084       .  S
C1121      C1122   1.406       .  A
C1121      C1281   1.475       .  S
C1122      H1125   1.082       .  S
C1126      C1127   1.409       .  A
C1126      C1131   1.403       .  A
C1126      C1415   1.493       .  S
C1127      C1128   1.410       .  A
C1127      H1132   1.082       .  S
C1128      C1129   1.404       .  A
C1128      C1259   1.473       .  S
C1129      C1130   1.399       .  A
C1129      H1133   1.084       .  S
C1130      C1131   1.399       .  A
C1130      C1248   1.470       .  S
C1131      H1134   1.082       .  S
C1135      C1136   1.402       .  A
C1135      C1140   1.411       .  A
C1135      C1412   1.494       .  S
C1136      C1137   1.401       .  A
C1136      H1141   1.082       .  S
C1137      C1138   1.397       .  A
C1137      C1301   1.467       .  S
C1138      C1139   1.402       .  A
C1138      H1142   1.084       .  S
C1139      C1140   1.411       .  A
C1139      C1206   1.475       .  S
C1140      H1143   1.082       .  S
C1144      C1145   1.403       .  A
C1144      C1149   1.407       .  A
C1144      C1396   1.491       .  S
C1145      C1146   1.404       .  A
C1145      H1150   1.083       .  S
C1146      C1147   1.399       .  A
C1146      C1324   1.470       .  S
C1147      C1148   1.402       .  A
C1147      H1151   1.084       .  S
C1148      C1149   1.408       .  A
C1148      C1287   1.472       .  S
C1149      H1152   1.082       .  S
C1153      C1154   1.407       .  A
C1153      C1158   1.404       .  A
C1153      C1399   1.494       .  S
C1154      C1155   1.411       .  A
C1154      H1159   1.083       .  S
C1155      C1156   1.401       .  A
C1155      C1266   1.475       .  S
C1156      C1157   1.400       .  A
C1156      H1160   1.084       .  S
C1157      C1158   1.404       .  A
C1157      C1344   1.471       .  S
C1158      H1161   1.081       .  S
C1162      C1163   1.406       .  A
C1162      C1167   1.407       .  A
C1162      C1383   1.496       .  S
C1163      C1164   1.406       .  A
C1163      H1168   1.082       .  S
C1164      C1165   1.403       .  A
C1164      C1218   1.476       .  S
C1165      C1166   1.403       .  A
C1165      H1169   1.084       .  S
C1166      C1167   1.405       .  A
C1166      C1291   1.475       .  S
C1167      H1170   1.080       .  S
C1171      C1172   1.407       .  A
C1171      C1176   1.406       .  A
C1171      C1380   1.495       .  S
C1172      C1173   1.406       .  A
C1172      H1177   1.082       .  S
C1173      C1174   1.399       .  A
C1173      C1271   1.472       .  S
C1174      C1175   1.399       .  A
C1174      H1178   1.084       .  S
C1175      C1176   1.404       .  A
C1175      C1238   1.467       .  S
C1176      H1179   1.080       .  S
C1180      C1181   1.405       .  A
C1180      C1185   1.400       .  A
C1180      C1364   1.481       .  S
C1181      C1182   1.409       .  A
C1181      H1186   1.084       .  S
C1182      C1183   1.406       .  A
C1182      C1213   1.475       .  S
C1183      C1184   1.401       .  A
C1183      H1187   1.084       .  S
C1184      C1185   1.402       .  A
C1184      C1340   1.472       .  S
C1185      H1188   1.084       .  S
C1189      C1190   1.404       .  A
C1189      C1194   1.403       .  A
C1189      C1367   1.485       .  S
C1190      C1191   1.406       .  A
C1190      H1195   1.084       .  S
C1191      C1192   1.405       .  A
C1191      C1319   1.475       .  S
C1192      C1193   1.402       .  A
C1192      H1196   1.084       .  S
C1193      C1194   1.410       .  A
C1193      C1234   1.478       .  S
C1194      H1197   1.083       .  S
C1198      C1235   1.464       .  S
C1198      N1216   1.345       .  A
N1199      N1216   1.321       .  A
N1199      N1221   1.319       .  A
N1199     Co1236   2.065       .  S
C1200      C1238   1.453       .  S
C1200      H1245   1.082       .  S
C1200      N1225   1.335       .  A
H1201      C1242   1.082       .  S
C1202      C1206   1.465       .  S
C1202      H1231   1.081       .  S
C1202      N1226   1.343       .  A
Co1203     N1221   2.094       .  S
Co1203     N1243   2.093       .  S
Co1203    Cl1247   2.455       .  S
N1204      C1242   1.337       .  A
N1204      N1211   1.321       .  A
N1204     Co1205   2.080       .  S
Co1205     N1208   2.070       .  S
Co1205     N1225   2.066       .  S
Co1205     N1212   2.087       .  S
C1206      N1244   1.346       .  A
N1207      N1214   1.320       .  A
N1207      N1237   1.327       .  A
N1207     Co1240   2.085       .  S
N1208      N1226   1.320       .  A
N1208      N1244   1.323       .  A
N1209      C1238   1.350       .  A
N1209      N1219   1.325       .  A
H1210      C1235   1.081       .  S
N1211      N1232   1.325       .  A
N1212      N1230   1.321       .  A
N1212      N1217   1.324       .  A
C1213      C1241   1.461       .  S
C1213      N1217   1.349       .  A
N1214      C1229   1.335       .  A
N1214     Co1236   2.074       .  S
C1215      C1218   1.464       .  S
C1215      H1249   1.081       .  S
C1215      N1243   1.345       .  A
C1218      N1239   1.347       .  A
N1219      N1225   1.320       .  A
N1220      C1246   1.333       .  A
N1220      N1222   1.319       .  A
N1220     Co1236   2.060       .  S
N1221      C1235   1.345       .  A
N1222      N1250   1.330       .  A
N1222     Co1240   2.111       .  S
H1223      C1246   1.081       .  S
H1224      C1241   1.082       .  S
N1227      N1239   1.322       .  A
N1227      N1243   1.319       .  A
N1227     Co1236   2.076       .  S
C1228      C1242   1.457       .  S
C1228      N1232   1.349       .  A
C1229      C1248   1.456       .  S
C1229      H1233   1.082       .  S
N1230      C1241   1.342       .  A
C1234      C1246   1.450       .  S
C1234      N1250   1.358       .  A
Co1236    Cl1247   2.444       .  S
N1237      C1248   1.350       .  A
Co1240    Cl1247   2.455       .  S
C1251      C1288   1.465       .  S
C1251      N1269   1.348       .  A
N1252      N2721   1.325       .  A
N1252      N1274   1.319       .  A
N1252     Co1289   2.083       .  S
C1253      C1291   1.456       .  S
C1253      H1298   1.081       .  S
C1253      N1278   1.337       .  A
H1254      C1295   1.081       .  S
C1255      C1259   1.461       .  S
C1255      H1284   1.082       .  S
C1255      N2731   1.342       .  A
Co1256     N1264   2.104       .  S
Co1256     N1272   2.093       .  S
Co1256    Cl1300   2.459       .  S
N1257      C2747   1.333       .  A
N1257      N1264   1.320       .  A
N1257     Co1258   2.063       .  S
Co1258     N1261   2.079       .  S
Co1258     N1278   2.076       .  S
Co1258     N1265   2.064       .  S
Co1258    Cl1300   2.445       .  S
C1259      N1297   1.349       .  A
N1260      N1267   1.321       .  A
N1260      N2742   1.327       .  A
N1261      N1279   1.320       .  A
N1261      N2749   1.324       .  A
N1262      C1291   1.352       .  A
N1262      N1272   1.328       .  A
H1263      C1288   1.082   1_554  S
N1264      N2737   1.330       .  A
N1265      N1283   1.320       .  A
N1265      N1270   1.321       .  A
C1266      C1294   1.468       .  S
C1266      N1270   1.344       .  A
N1267      C2734   1.334       .  A
N1267     Co1289   2.065       .  S
C1268      C1271   1.464       .  S
C1268      H1302   1.082       .  S
C1268      N1296   1.345       .  A
N1269      N2704   1.324       .  A
C1271      N1292   1.346       .  A
N1272      N1278   1.320       .  A
N1273      C1299   1.337       .  A
N1273      N1275   1.320       .  A
N1273     Co1289   2.074       .  S
N1274      C2740   1.343       .  A
N1275      N1303   1.327       .  A
H1276      C1299   1.081       .  S
H1277      C1294   1.081       .  S
N1279      C2707   1.343       .  A
N1279     Co1293   2.091       .  S
N1280      N1292   1.321       .  A
N1280      N1296   1.320       .  A
N1280     Co1289   2.069       .  S
C1281      C1295   1.452       .  S
C1281      N1285   1.355       .  A
C1282      C1301   1.450       .  S
C1282      H1286   1.082       .  S
C1282      N2719   1.331       .  A
N1283      C1294   1.346       .  A
N1283     Co1293   2.103       .  S
N1285      N2716   1.329       .  A
C1287      C1299   1.454       .  S
C1287      N1303   1.352       .  A
C1288      N2726   1.344       .  A
N1290      C1301   1.353       .  A
N1290      N2712   1.328       .  A
Co1293    Cl1300   2.457       .  S
C1295      N2709   1.333       .  A
N1297      N2713   1.324       .  A
C1304      C1341   1.465       .  S
C1304      N1322   1.346       .  A
N1305      N1322   1.321       .  A
N1305      N1327   1.320       .  A
N1305     Co1342   2.068       .  S
C1306      C1344   1.453       .  S
C1306      H1351   1.081       .  S
C1306      N1331   1.334       .  A
H1307      C1348   1.081       .  S
C1308      C1312   1.464       .  S
C1308      H1337   1.081       .  S
C1308      N1332   1.344       .  A
Co1309     N1317   2.092       .  S
Co1309    Cl1353   2.456       .  S
N1310      C1348   1.337       .  A
N1310      N1317   1.321       .  A
N1310     Co1311   2.076       .  S
Co1311     N1314   2.071       .  S
Co1311    Cl1353   2.447       .  S
C1312      N1350   1.346       .  A
N1313      N1320   1.320       .  A
N1313      N1343   1.327       .  A
N1314      N1332   1.320       .  A
N1314      N1350   1.322       .  A
N1315      C1344   1.353       .  A
N1315      N1325   1.327       .  A
H1316      C1341   1.082       .  S
N1317      N1338   1.327       .  A
N1318      N1336   1.320       .  A
N1318      N1323   1.323       .  A
C1319      C1347   1.462       .  S
C1319      N1323   1.349       .  A
N1320      C1335   1.336       .  A
N1320     Co1342   2.075       .  S
C1321      C1324   1.464       .  S
C1321      H1355   1.082   1_556  S
C1321      N1349   1.345       .  A
C1324      N1345   1.345       .  A
N1325      N1331   1.320       .  A
N1326      C1352   1.335       .  A
N1326      N1328   1.320       .  A
N1327      C1341   1.346       .  A
N1328      N1356   1.328       .  A
H1329      C1352   1.082       .  S
H1330      C1347   1.081       .  S
N1332     Co1346   2.096       .  S
N1333      N1345   1.319       .  A
N1333      N1349   1.319       .  A
C1334      C1348   1.456       .  S
C1334      N1338   1.351       .  A
C1335      C1354   1.456       .  S
C1335      H1339   1.082       .  S
N1336      C1347   1.343       .  A
C1340      C1352   1.454       .  S
C1340      N1356   1.352       .  A
N1343      C1354   1.351       .  A
Co1346    Cl1353   2.458       .  S
C1357      C1362   1.387       .  A
C1357      C1358   1.401       .  A
C1357      S1363   1.705       .  A
C1358      C1359   1.402       .  A
C1358      H1369   1.083       .  S
C1359      C1368   1.371       .  A
C1359      C1360   1.386       .  A
C1360      C1361   1.406       .  A
C1360      S1366   1.712       .  A
C1361      C1362   1.406       .  A
C1361      H1370   1.083       .  S
C1362      C1365   1.376       .  A
S1363      C1364   1.725       .  A
C1364      C1365   1.389       .  A
C1365      H1371   1.083       .  S
S1366      C1367   1.728       .  A
C1367      C1368   1.387       .  A
C1368      H1372   1.083       .  S
C1373      C1378   1.384       .  A
C1373      C1374   1.401       .  A
C1373      S1379   1.703       .  A
C1374      C1375   1.402       .  A
C1374      H1385   1.082       .  S
C1375      C1384   1.370       .  A
C1375      C1376   1.384       .  A
C1376      C1377   1.403       .  A
C1376      S1382   1.705       .  A
C1377      C1378   1.404       .  A
C1377      H1386   1.083       .  S
C1378      C1381   1.371       .  A
S1379      C1380   1.730       .  A
C1380      C1381   1.394       .  A
C1381      H1387   1.081       .  S
S1382      C1383   1.731       .  A
C1383      C1384   1.394       .  A
C1384      H1388   1.080       .  S
C1389      C1394   1.385       .  A
C1389      C1390   1.400       .  A
C1389      S1395   1.703       .  A
C1390      C1391   1.402       .  A
C1390      H1401   1.083       .  S
C1391      C1400   1.369       .  A
C1391      C1392   1.384       .  A
C1392      C1393   1.405       .  A
C1392      S1398   1.710       .  A
C1393      C1394   1.405       .  A
C1393      H1402   1.082       .  S
C1394      C1397   1.374       .  A
S1395      C1396   1.729       .  A
C1396      C1397   1.393       .  A
C1397      H1403   1.082       .  S
S1398      C1399   1.730       .  A
C1399      C1400   1.393       .  A
C1400      H1404   1.082       .  S
C1405      C1410   1.385       .  A
C1405      C1406   1.405       .  A
C1405      S1411   1.704       .  A
C1406      C1407   1.404       .  A
C1406      H1417   1.083       .  S
C1407      C1416   1.376       .  A
C1407      C1408   1.385       .  A
C1408      C1409   1.400       .  A
C1408      S1414   1.698       .  A
C1409      C1410   1.400       .  A
C1409      H1418   1.083       .  S
C1410      C1413   1.372       .  A
S1411      C1412   1.734       .  A
C1412      C1413   1.390       .  A
C1413      H1419   1.082       .  S
S1414      C1415   1.730       .  A
C1415      C1416   1.393       .  A
C1416      H1420   1.082       .  S
C1421      C1426   1.386       .  A
C1421      C1422   1.406       .  A
C1421      S1427   1.708       .  A
C1422      C1423   1.406       .  A
C1422      H1433   1.083       .  S
C1423      C1432   1.377       .  A
C1423      C1424   1.386       .  A
C1424      C1425   1.401       .  A
C1424      S1430   1.701       .  A
C1425      C1426   1.401       .  A
C1425      H1434   1.083       .  S
C1426      C1429   1.372       .  A
S1427      C1428   1.731       .  A
C1428      C1429   1.390       .  A
C1429      H1435   1.083       .  S
S1430      C1431   1.729       .  A
C1431      C1432   1.391       .  A
C1432      H1436   1.083       .  S
C1437      C1442   1.385       .  A
C1437      C1438   1.404       .  A
C1437      S1443   1.710       .  A
C1438      C1439   1.405       .  A
C1438      H1449   1.083       .  S
C1439      C1448   1.371       .  A
C1439      C1440   1.385       .  A
C1440      C1441   1.399       .  A
C1440      S1446   1.705       .  A
C1441      C1442   1.401       .  A
C1441      H1450   1.083       .  S
C1442      C1445   1.367       .  A
S1443      C1444   1.729       .  A
C1444      C1445   1.389       .  A
C1445      H1451   1.082       .  S
S1446      C1447   1.726       .  A
C1447      C1448   1.393       .  A
C1448      H1452   1.082       .  S
C1453      C1454   1.404       .  A
C1453      C1458   1.406       .  A
C1453      C1807   1.489       .  S
C1454      C1455   1.400       .  A
C1454      H1459   1.081       .  S
C1455      C1456   1.401       .  A
C1455      C1697   1.466       .  S
C1456      C1457   1.399       .  A
C1456      H1460   1.084       .  S
C1457      C1458   1.406       .  A
C1457      C1561   1.471       .  S
C1458      H1461   1.083       .  S
C1462      C1463   1.403       .  A
C1462      C1467   1.406       .  A
C1462      C1810   1.488       .  S
C1463      C1464   1.401       .  A
C1463      H1468   1.082       .  S
C1464      C1465   1.402       .  A
C1464      C1591   1.469       .  S
C1465      C1466   1.402       .  A
C1465      H1469   1.084       .  S
C1466      C1467   1.408       .  A
C1466      C1667   1.474       .  S
C1467      H1470   1.083       .  S
C1471      C1472   1.408       .  A
C1471      C1476   1.403       .  A
C1471      C1794   1.490       .  S
C1472      C1473   1.412       .  A
C1472      H1477   1.083       .  S
C1473      C1474   1.404       .  A
C1473      C1614   1.475       .  S
C1474      C1475   1.398       .  A
C1474      H1478   1.084       .  S
C1475      C1476   1.402       .  A
C1475      C1717   1.472       .  S
C1476      H1479   1.082       .  S
C1480      C1481   1.405       .  A
C1480      C1485   1.402       .  A
C1480      C1791   1.491       .  S
C1481      C1482   1.407       .  A
C1481      H1486   1.082       .  S
C1482      C1483   1.402       .  A
C1482      C1675   1.472       .  S
C1483      C1484   1.400       .  A
C1483      H1487   1.084       .  S
C1484      C1485   1.408       .  A
C1484      C1644   1.473       .  S
C1485      H1488   1.082       .  S
C1489      C1490   1.406       .  A
C1489      C1494   1.401       .  A
C1489      C1778   1.487       .  S
C1490      C1491   1.411       .  A
C1490      H1495   1.083       .  S
C1491      C1492   1.404       .  A
C1491      C1622   1.472       .  S
C1492      C1493   1.399       .  A
C1492      H1496   1.084       .  S
C1493      C1494   1.399       .  A
C1493      C1611   1.470       .  S
C1494      H1497   1.082       .  S
C1498      C1499   1.400       .  A
C1498      C1503   1.409       .  A
C1498      C1775   1.490       .  S
C1499      C1500   1.402       .  A
C1499      H1504   1.082       .  S
C1500      C1501   1.400       .  A
C1500      C1664   1.470       .  S
C1501      C1502   1.404       .  A
C1501      H1505   1.084       .  S
C1502      C1503   1.411       .  A
C1502      C1569   1.478       .  S
C1503      H1506   1.083       .  S
C1507      C1508   1.404       .  A
C1507      C1512   1.404       .  A
C1507      C1759   1.492       .  S
C1508      C1509   1.406       .  A
C1508      H1513   1.082       .  S
C1509      C1510   1.399       .  A
C1509      C1687   1.467       .  S
C1510      C1511   1.398       .  A
C1510      H1514   1.084       .  S
C1511      C1512   1.402       .  A
C1511      C1650   1.465       .  S
C1512      H1515   1.080       .  S
C1516      C1517   1.407       .  A
C1516      C1521   1.408       .  A
C1516      C1762   1.496       .  S
C1517      C1518   1.405       .  A
C1517      H1522   1.082       .  S
C1518      C1519   1.402       .  A
C1518      C1629   1.477       .  S
C1519      C1520   1.404       .  A
C1519      H1523   1.084       .  S
C1520      C1521   1.407       .  A
C1520      C1707   1.476       .  S
C1521      H1524   1.081       .  S
C1525      C1526   1.405       .  A
C1525      C1530   1.405       .  A
C1525      C1746   1.490       .  S
C1526      C1527   1.406       .  A
C1526      H1531   1.083       .  S
C1527      C1528   1.401       .  A
C1527      C1581   1.472       .  S
C1528      C1529   1.402       .  A
C1528      H1532   1.084       .  S
C1529      C1530   1.407       .  A
C1529      C1654   1.470       .  S
C1530      H1533   1.082       .  S
C1534      C1535   1.406       .  A
C1534      C1539   1.405       .  A
C1534      C1743   1.493       .  S
C1535      C1536   1.410       .  A
C1535      H1540   1.083       .  S
C1536      C1537   1.404       .  A
C1536      C1634   1.478       .  S
C1537      C1538   1.402       .  A
C1537      H1541   1.084       .  S
C1538      C1539   1.405       .  A
C1538      C1601   1.475       .  S
C1539      H1542   1.082       .  S
C1543      C1544   1.404       .  A
C1543      C1548   1.405       .  A
C1543      C1727   1.488       .  S
C1544      C1545   1.405       .  A
C1544      H1549   1.083       .  S
C1545      C1546   1.404       .  A
C1545      C1576   1.469       .  S
C1546      C1547   1.399       .  A
C1546      H1550   1.084       .  S
C1547      C1548   1.404       .  A
C1547      C1703   1.474       .  S
C1548      H1551   1.082       .  S
C1552      C1553   1.409       .  A
C1552      C1557   1.403       .  A
C1552      C1730   1.492       .  S
C1553      C1554   1.408       .  A
C1553      H1558   1.082       .  S
C1554      C1555   1.405       .  A
C1554      C1682   1.478       .  S
C1555      C1556   1.401       .  A
C1555      H1559   1.084       .  S
C1556      C1557   1.406       .  A
C1556      C1597   1.475       .  S
C1557      H1560   1.082       .  S
C1561      C1598   1.464       .  S
C1561      N1579   1.344       .  A
N1562      N1579   1.320       .  A
N1562      N1584   1.319       .  A
N1562     Co1599   2.064       .  S
C1563      C1601   1.453       .  S
C1563      H1608   1.082       .  S
C1563      N1588   1.335       .  A
H1564      C1605   1.082       .  S
C1565      C1569   1.467       .  S
C1565      H1594   1.081       .  S
C1565      N1589   1.346       .  A
Co1566     N1584   2.093       .  S
Co1566     N1937   2.088   1_554  S
Co1566     N1606   2.095       .  S
Co1566     N1945   2.089   1_554  S
Co1566    Cl1610   2.455       .  S
N1567      C1605   1.337       .  A
N1567      N1574   1.321       .  A
N1567     Co1568   2.078       .  S
Co1568     N1571   2.071       .  S
Co1568     N1588   2.067       .  S
Co1568     N1575   2.084       .  S
Co1568    Cl1973   2.446       .  S
C1569      N1607   1.346       .  A
N1570      N1577   1.320       .  A
N1570      N1600   1.327       .  A
N1570     Co1603   2.091       .  S
N1571      N1589   1.320       .  A
N1571      N1607   1.323       .  A
N1572      C1601   1.354       .  A
N1572      N1582   1.328       .  A
H1573      C1598   1.081       .  S
N1574      N1595   1.325       .  A
N1574     Co1929   2.087       .  S
N1575      N1593   1.320       .  A
N1575      N1580   1.323       .  A
C1576      C1604   1.457       .  S
C1576      N1580   1.349       .  A
N1577      C1592   1.333       .  A
N1577     Co1599   2.068       .  S
C1578      C1581   1.465       .  S
C1578      H1612   1.081       .  S
C1578      N1606   1.345       .  A
C1581      N1602   1.345       .  A
N1582      N1588   1.320       .  A
N1582     Co1929   2.103       .  S
N1583      C1609   1.333       .  A
N1583      N1585   1.319       .  A
N1583     Co1599   2.059       .  S
N1584      C1598   1.345       .  A
N1585      N1613   1.330       .  A
N1585     Co1603   2.103       .  S
H1586      C1609   1.081       .  S
H1587      C1604   1.081       .  S
N1589     Co1966   2.103       .  S
N1590      N1602   1.320       .  A
N1590      N1606   1.320       .  A
N1590     Co1599   2.069       .  S
C1591      C1605   1.457       .  S
C1591      N1595   1.349       .  A
C1592      C1611   1.454       .  S
C1592      H1596   1.082       .  S
N1593      C1604   1.340       .  A
N1593     Co1966   2.077       .  S
C1597      C1609   1.450       .  S
C1597      N1613   1.356       .  A
Co1599    Cl1610   2.441       .  S
N1600      C1611   1.352       .  A
Co1603     N1952   2.092   1_554  S
Co1603     N1956   2.087   1_554  S
Co1603    Cl1610   2.457       .  S
Cl1610    Co1931   2.450   1_554  S
C1614      C1651   1.464       .  S
C1614      N1632   1.347       .  A
N1615      N1637   1.320       .  A
N1615     Co1652   2.081   1_455  S
C1616      C1654   1.453       .  S
C1616      H1661   1.081       .  S
C1616      N1641   1.336       .  A
H1617      C1658   1.081       .  S
C1618      C1622   1.463       .  S
C1618      H1647   1.082       .  S
Co1619     N2000   2.099   1_654  S
Co1619     N1627   2.100   1_655  S
Co1619     N2022   2.099   1_554  S
Co1619     N1635   2.096       .  S
Co1619    Cl1663   2.456       .  S
N1620      N1627   1.320       .  A
N1620     Co1621   2.062   1_455  S
Co1621     N1624   2.074   1_655  S
Co1621     N1641   2.069       .  S
Co1621     N1628   2.072       .  S
Co1621    Cl1663   2.446       .  S
C1622      N1660   1.346       .  A
N1623      N1630   1.321       .  A
N1623     Co2019   2.100   1_455  S
N1624      N1642   1.319       .  A
N1625      C1654   1.352       .  A
N1625      N1635   1.327       .  A
H1626      C1651   1.082       .  S
N1628      N1646   1.319       .  A
N1628      N1633   1.322       .  A
C1629      C1657   1.465       .  S
C1629      N1633   1.347       .  A
N1630     Co1652   2.064   1_455  S
C1631      C1634   1.467       .  S
C1631      H1665   1.081       .  S
C1631      N1659   1.346       .  A
C1634      N1655   1.346       .  A
N1635      N1641   1.321       .  A
N1636      C1662   1.333       .  A
N1636      N1638   1.320       .  A
N1636     Co1652   2.068       .  S
N1637     Co1982   2.092   1_455  S
N1638      N1666   1.325       .  A
N1638     Co2019   2.082       .  S
H1639      C1662   1.081       .  S
H1640      C1657   1.081       .  S
N1642     Co1656   2.090   1_455  S
N1643      N1655   1.322       .  A
N1643      N1659   1.319       .  A
N1643     Co1652   2.070       .  S
C1644      C1658   1.449       .  S
C1644      N1648   1.356       .  A
C1645      C1664   1.451       .  S
C1645      H1649   1.081       .  S
N1646      C1657   1.346       .  A
N1646     Co1656   2.097       .  S
C1650      C1662   1.452       .  S
C1650      N1666   1.350       .  A
Co1652    Cl2026   2.446       .  S
N1653      C1664   1.353       .  A
Co1656     N1986   2.094   1_654  S
Co1656     N2001   2.086   1_554  S
Co1656    Cl1663   2.456       .  S
N1659     Co1982   2.103       .  S
Cl1663    Co2015   2.445   1_554  S
C1667      C1704   1.466       .  S
C1667      N1685   1.345       .  A
N1668      N1685   1.321       .  A
N1668      N1690   1.319       .  A
N1668     Co1705   2.065       .  S
C1669      C1707   1.456       .  S
C1669      H1714   1.081       .  S
C1669      N1694   1.337       .  A
H1670      C1711   1.081       .  S
C1671      C1675   1.465       .  S
C1671      H1700   1.081       .  S
C1671      N1695   1.345       .  A
Co1672     N2053   2.100   1_554  S
Co1672     N1680   2.075       .  S
Co1672     N2801   2.084   1_554  S
Co1672     N2414   2.097       .  S
Co1672    Cl1716   2.454       .  S
N1673      C1711   1.338       .  A
N1673      N1680   1.320       .  A
N1673     Co1674   2.080       .  S
Co1674     N1677   2.065       .  S
Co1674     N2420   2.062       .  S
Co1674     N2407   2.084       .  S
Co1674    Cl1716   2.443       .  S
C1675      N1713   1.345       .  A
N1676      N1683   1.319       .  A
N1676      N1706   1.329       .  A
N1676     Co2072   2.101       .  S
N1677      N1695   1.320       .  A
N1677      N1713   1.320       .  A
N1678      C1707   1.353       .  A
N1678      N1688   1.328       .  A
H1679      C1704   1.082       .  S
N1680      N1701   1.323       .  A
N1681      N1699   1.321       .  A
N1681      N1686   1.324       .  A
N1681     Co2400   2.083   1_545  S
C1682      C1710   1.463       .  S
C1682      N1686   1.349       .  A
N1683      C1698   1.333       .  A
N1683     Co1705   2.062       .  S
C1684      C1687   1.463       .  S
C1684      H1718   1.082       .  S
C1684      N1712   1.344       .  A
C1687      N1708   1.344       .  A
N1688      N1694   1.320       .  A
N1688     Co2398   2.099   1_545  S
N1689      C1715   1.335       .  A
N1689      N1691   1.319       .  A
N1689     Co2431   2.067   1_545  S
N1690      C1704   1.346       .  A
N1690     Co2035   2.101       .  S
N1691      N1719   1.328       .  A
N1691     Co2798   2.100   1_545  S
H1692      C1715   1.082       .  S
H1693      C1710   1.081       .  S
N1694     Co2400   2.075   1_545  S
N1695     Co1709   2.096       .  S
N1696      N1708   1.319       .  A
N1696      N1712   1.319       .  A
N1696     Co2431   2.064   1_545  S
C1697      C1711   1.458       .  S
C1697      N1701   1.347       .  A
C1698      C1717   1.452       .  S
C1698      H1702   1.081       .  S
N1699      C1710   1.343       .  A
N1699     Co2435   2.094   1_545  S
C1703      C1715   1.453       .  S
C1703      N1719   1.354       .  A
Co1705     N2415   2.063       .  S
Co1705     N2422   2.061       .  S
Co1705    Cl2079   2.439       .  S
N1706      C1717   1.354       .  A
Co1709     N2039   2.086   1_554  S
Co1709     N2780   2.101   1_554  S
Co1709     N2425   2.081       .  S
Co1709    Cl1716   2.457       .  S
N1712     Co2761   2.087   1_545  S
Cl1716    Co2068   2.435   1_554  S
C1720      C1725   1.385       .  A
C1720      C1721   1.399       .  A
C1720      S1726   1.702       .  A
C1721      C1722   1.400       .  A
C1721      H1732   1.083       .  S
C1722      C1731   1.370       .  A
C1722      C1723   1.385       .  A
C1723      C1724   1.406       .  A
C1723      S1729   1.709       .  A
C1724      C1725   1.406       .  A
C1724      H1733   1.083       .  S
C1725      C1728   1.375       .  A
S1726      C1727   1.726       .  A
C1727      C1728   1.393       .  A
C1728      H1734   1.082       .  S
S1729      C1730   1.733       .  A
C1730      C1731   1.389       .  A
C1731      H1735   1.082       .  S
C1736      C1741   1.385       .  A
C1736      C1737   1.406       .  A
C1736      S1742   1.712       .  A
C1737      C1738   1.407       .  A
C1737      H1748   1.082       .  S
C1738      C1747   1.375       .  A
C1738      C1739   1.385       .  A
C1739      C1740   1.401       .  A
C1739      S1745   1.705       .  A
C1740      C1741   1.402       .  A
C1740      H1749   1.083       .  S
C1741      C1744   1.371       .  A
S1742      C1743   1.730       .  A
C1743      C1744   1.391       .  A
C1744      H1750   1.082       .  S
S1745      C1746   1.727       .  A
C1746      C1747   1.393       .  A
C1747      H1751   1.082       .  S
C1752      C1757   1.384       .  A
C1752      C1753   1.404       .  A
C1752      S1758   1.707       .  A
C1753      C1754   1.405       .  A
C1753      H1764   1.083       .  S
C1754      C1763   1.373       .  A
C1754      C1755   1.384       .  A
C1755      C1756   1.399       .  A
C1755      S1761   1.701       .  A
C1756      C1757   1.400       .  A
C1756      H1765   1.083       .  S
C1757      C1760   1.367       .  A
S1758      C1759   1.731       .  A
C1759      C1760   1.392       .  A
C1760      H1766   1.081       .  S
S1761      C1762   1.730       .  A
C1762      C1763   1.395       .  A
C1763      H1767   1.081       .  S
C1768      C1773   1.386       .  A
C1768      C1769   1.407       .  A
C1768      S1774   1.707       .  A
C1769      C1770   1.406       .  A
C1769      H1780   1.083       .  S
C1770      C1779   1.378       .  A
C1770      C1771   1.386       .  A
C1771      C1772   1.398       .  A
C1771      S1777   1.697       .  A
C1772      C1773   1.398       .  A
C1772      H1781   1.083       .  S
C1773      C1776   1.370       .  A
S1774      C1775   1.734       .  A
C1775      C1776   1.387       .  A
C1776      H1782   1.082       .  S
S1777      C1778   1.726       .  A
C1778      C1779   1.392       .  A
C1779      H1783   1.083       .  S
C1784      C1789   1.385       .  A
C1784      C1785   1.407       .  A
C1784      S1790   1.710       .  A
C1785      C1786   1.407       .  A
C1785      H1796   1.083       .  S
C1786      C1795   1.378       .  A
C1786      C1787   1.386       .  A
C1787      C1788   1.399       .  A
C1787      S1793   1.700       .  A
C1788      C1789   1.400       .  A
C1788      H1797   1.083       .  S
C1789      C1792   1.370       .  A
S1790      C1791   1.732       .  A
C1791      C1792   1.389       .  A
C1792      H1798   1.082       .  S
S1793      C1794   1.728       .  A
C1794      C1795   1.393       .  A
C1795      H1799   1.083       .  S
C1800      C1805   1.385       .  A
C1800      C1801   1.400       .  A
C1800      S1806   1.705       .  A
C1801      C1802   1.402       .  A
C1801      H1812   1.083       .  S
C1802      C1811   1.367       .  A
C1802      C1803   1.385       .  A
C1803      C1804   1.402       .  A
C1803      S1809   1.708       .  A
C1804      C1805   1.404       .  A
C1804      H1813   1.083       .  S
C1805      C1808   1.369       .  A
S1806      C1807   1.728       .  A
C1807      C1808   1.392       .  A
C1808      H1814   1.082       .  S
S1809      C1810   1.728       .  A
C1810      C1811   1.391       .  A
C1811      H1815   1.082       .  S
C1816      C1817   1.403       .  A
C1816      C1821   1.409       .  A
C1816      C2170   1.491       .  S
C1817      C1818   1.402       .  A
C1817      H1822   1.082       .  S
C1818      C1819   1.401       .  A
C1818      C2060   1.467       .  S
C1819      C1820   1.400       .  A
C1819      H1823   1.084       .  S
C1820      C1821   1.410       .  A
C1820      C1924   1.476       .  S
C1821      H1824   1.083       .  S
C1825      C1826   1.404       .  A
C1825      C1830   1.405       .  A
C1825      C2173   1.489       .  S
C1826      C1827   1.401       .  A
C1826      H1831   1.082       .  S
C1827      C1828   1.401       .  A
C1827      C1954   1.469       .  S
C1828      C1829   1.402       .  A
C1828      H1832   1.084       .  S
C1829      C1830   1.410       .  A
C1829      C2030   1.473       .  S
C1830      H1833   1.083       .  S
C1834      C1835   1.411       .  A
C1834      C1839   1.404       .  A
C1834      C2157   1.497       .  S
C1835      C1836   1.409       .  A
C1835      H1840   1.080       .  S
C1836      C1837   1.402       .  A
C1836      C1977   1.473       .  S
C1837      C1838   1.396       .  A
C1837      H1841   1.084       .  S
C1838      C1839   1.400       .  A
C1838      C2080   1.467       .  S
C1839      H1842   1.081       .  S
C1843      C1844   1.409       .  A
C1843      C1848   1.407       .  A
C1843      C2154   1.498       .  S
C1844      C1845   1.408       .  A
C1844      H1849   1.080       .  S
C1845      C1846   1.402       .  A
C1845      C2038   1.472       .  S
C1846      C1847   1.398       .  A
C1846      H1850   1.084       .  S
C1847      C1848   1.404       .  A
C1847      C2007   1.472       .  S
C1848      H1851   1.081       .  S
C1852      C1853   1.410       .  A
C1852      C1857   1.399       .  A
C1852      C2141   1.488       .  S
C1853      C1854   1.411       .  A
C1853      H1858   1.082       .  S
C1854      C1855   1.402       .  A
C1854      C1985   1.472       .  S
C1855      C1856   1.397       .  A
C1855      H1859   1.084       .  S
C1856      C1857   1.397       .  A
C1856      C1974   1.464       .  S
C1857      H1860   1.082       .  S
C1861      C1862   1.404       .  A
C1861      C1866   1.409       .  A
C1861      C2138   1.493       .  S
C1862      C1863   1.401       .  A
C1862      H1867   1.082       .  S
C1863      C1864   1.400       .  A
C1863      C2027   1.473       .  S
C1864      C1865   1.404       .  A
C1864      H1868   1.084       .  S
C1865      C1866   1.409       .  A
C1865      C1932   1.476       .  S
C1866      H1869   1.082       .  S
C1870      C1871   1.403       .  A
C1870      C1875   1.405       .  A
C1870      C2122   1.490       .  S
C1871      C1872   1.402       .  A
C1871      H1876   1.083       .  S
C1872      C1873   1.400       .  A
C1872      C2050   1.469       .  S
C1873      C1874   1.402       .  A
C1873      H1877   1.084       .  S
C1874      C1875   1.405       .  A
C1874      C2013   1.469       .  S
C1875      H1878   1.081       .  S
C1879      C1880   1.407       .  A
C1879      C1884   1.405       .  A
C1879      C2125   1.494       .  S
C1880      C1881   1.410       .  A
C1880      H1885   1.083       .  S
C1881      C1882   1.402       .  A
C1881      C1992   1.477       .  S
C1882      C1883   1.402       .  A
C1882      H1886   1.084       .  S
C1883      C1884   1.404       .  A
C1883      C2070   1.473       .  S
C1884      H1887   1.081       .  S
C1888      C1889   1.405       .  A
C1888      C1893   1.403       .  A
C1888      C2109   1.488       .  S
C1889      C1890   1.407       .  A
C1889      H1894   1.083       .  S
C1890      C1891   1.403       .  A
C1890      C1944   1.474       .  S
C1891      C1892   1.403       .  A
C1891      H1895   1.084       .  S
C1892      C1893   1.403       .  A
C1892      C2017   1.471       .  S
C1893      H1896   1.082       .  S
C1897      C1898   1.405       .  A
C1897      C1902   1.406       .  A
C1897      C2106   1.491       .  S
C1898      C1899   1.405       .  A
C1898      H1903   1.083       .  S
C1899      C1900   1.402       .  A
C1899      C1997   1.477       .  S
C1900      C1901   1.404       .  A
C1900      H1904   1.084       .  S
C1901      C1902   1.406       .  A
C1901      C1964   1.474       .  S
C1902      H1905   1.081       .  S
C1906      C1907   1.406       .  A
C1906      C1911   1.404       .  A
C1906      C2090   1.487       .  S
C1907      C1908   1.409       .  A
C1907      H1912   1.083       .  S
C1908      C1909   1.404       .  A
C1908      C1939   1.472       .  S
C1909      C1910   1.398       .  A
C1909      H1913   1.084       .  S
C1910      C1911   1.403       .  A
C1910      C2066   1.473       .  S
C1911      H1914   1.083       .  S
C1915      C1916   1.405       .  A
C1915      C1920   1.401       .  A
C1915      C2093   1.487       .  S
C1916      C1917   1.406       .  A
C1916      H1921   1.083       .  S
C1917      C1918   1.407       .  A
C1917      C2045   1.476       .  S
C1918      C1919   1.403       .  A
C1918      H1922   1.084       .  S
C1919      C1920   1.406       .  A
C1919      C1960   1.476       .  S
C1920      H1923   1.082       .  S
C1924      C1961   1.468       .  S
C1924      N1942   1.344       .  A
N1925      N1942   1.322       .  A
N1925      N1947   1.319       .  A
N1925     Co1962   2.063       .  S
C1926      C1964   1.458       .  S
C1926      H1971   1.082       .  S
C1926      N1951   1.339       .  A
H1927      C1968   1.082       .  S
C1928      C1932   1.462       .  S
C1928      H1957   1.081       .  S
C1928      N1952   1.343       .  A
Co1929     N1947   2.105       .  S
Co1929     N1969   2.092       .  S
Co1929    Cl1973   2.454       .  S
N1930      C1968   1.336       .  A
N1930      N1937   1.321       .  A
N1930     Co1931   2.077       .  S
Co1931     N1934   2.082       .  S
Co1931     N1951   2.080       .  S
Co1931     N1938   2.082       .  S
C1932      N1970   1.349       .  A
N1933      N1940   1.319       .  A
N1933      N1963   1.326       .  A
N1933     Co1966   2.080       .  S
N1934      N1952   1.320       .  A
N1934      N1970   1.324       .  A
N1935      C1964   1.350       .  A
N1935      N1945   1.326       .  A
H1936      C1961   1.081       .  S
N1937      N1958   1.326       .  A
N1938      N1956   1.321       .  A
N1938      N1943   1.324       .  A
C1939      C1967   1.460       .  S
C1939      N1943   1.349       .  A
N1940      C1955   1.333       .  A
N1940     Co1962   2.068       .  S
C1941      C1944   1.464       .  S
C1941      H1975   1.081       .  S
C1941      N1969   1.345       .  A
C1944      N1965   1.346       .  A
N1945      N1951   1.321       .  A
N1946      C1972   1.332       .  A
N1946      N1948   1.319       .  A
N1946     Co1962   2.061       .  S
N1947      C1961   1.347       .  A
N1948      N1976   1.331       .  A
N1948     Co1966   2.107       .  S
H1949      C1972   1.081       .  S
H1950      C1967   1.082       .  S
N1953      N1965   1.321       .  A
N1953      N1969   1.319       .  A
N1953     Co1962   2.073       .  S
C1954      C1968   1.455       .  S
C1954      N1958   1.350       .  A
C1955      C1974   1.453       .  S
C1955      H1959   1.081       .  S
N1956      C1967   1.341       .  A
C1960      C1972   1.450       .  S
C1960      N1976   1.356       .  A
Co1962    Cl1973   2.441       .  S
N1963      C1974   1.349       .  A
Co1966    Cl1973   2.457       .  S
C1977      C2014   1.460       .  S
C1977      N1995   1.349       .  A
N1978      N2000   1.320       .  A
N1978     Co2015   2.079   1_455  S
C1979      C2017   1.457       .  S
C1979      H2024   1.081       .  S
C1979      N2004   1.336       .  A
H1980      C2021   1.081       .  S
C1981      C1985   1.462       .  S
C1981      H2010   1.082       .  S
Co1982     N1990   2.104   1_655  S
Co1982     N1998   2.087       .  S
Co1982    Cl2026   2.457       .  S
N1983      N1990   1.320       .  A
N1983     Co1984   2.063   1_455  S
Co1984     N1987   2.083   1_655  S
Co1984     N2004   2.078       .  S
Co1984     N1991   2.067       .  S
Co1984    Cl2026   2.445       .  S
C1985      N2023   1.347       .  A
N1986      N1993   1.320       .  A
N1987      N2005   1.320       .  A
N1988      C2017   1.350       .  A
N1988      N1998   1.326       .  A
H1989      C2014   1.082       .  S
N1991      N2009   1.320       .  A
N1991      N1996   1.321       .  A
C1992      C2020   1.468       .  S
C1992      N1996   1.345       .  A
N1993     Co2015   2.067   1_455  S
C1994      C1997   1.465       .  S
C1994      H2028   1.082       .  S
C1994      N2022   1.347       .  A
C1997      N2018   1.347       .  A
N1998      N2004   1.321       .  A
N1999      C2025   1.336       .  A
N1999      N2001   1.321       .  A
N1999     Co2015   2.075       .  S
N2001      N2029   1.326       .  A
H2002      C2025   1.081       .  S
H2003      C2020   1.082       .  S
N2005     Co2019   2.081   1_455  S
N2006      N2018   1.322       .  A
N2006      N2022   1.320       .  A
N2006     Co2015   2.074       .  S
C2007      C2021   1.451       .  S
C2007      N2011   1.354       .  A
C2008      C2027   1.454       .  S
C2008      H2012   1.082       .  S
N2009      C2020   1.347       .  A
N2009     Co2019   2.104       .  S
C2013      C2025   1.455       .  S
C2013      N2029   1.350       .  A
N2016      C2027   1.353       .  A
Co2019    Cl2026   2.457       .  S
C2030      C2067   1.467       .  S
C2030      N2048   1.344       .  A
N2031      N2048   1.320       .  A
N2031      N2053   1.319       .  A
N2031     Co2068   2.059       .  S
C2032      C2070   1.455       .  S
C2032      H2077   1.081       .  S
C2032      N2057   1.336       .  A
H2033      C2074   1.081       .  S
C2034      C2038   1.461       .  S
C2034      H2063   1.082       .  S
C2034      N2058   1.342       .  A
Co2035     N2043   2.085       .  S
Co2035     N2438   2.088       .  S
Co2035     N2777   2.096       .  S
Co2035    Cl2079   2.457       .  S
N2036      C2074   1.336       .  A
N2036      N2043   1.321       .  A
N2036     Co2037   2.076       .  S
Co2037     N2040   2.075       .  S
Co2037     N2783   2.072       .  S
Co2037     N2770   2.080       .  S
Co2037    Cl2079   2.444       .  S
C2038      N2076   1.347       .  A
N2039      N2046   1.319       .  A
N2039      N2069   1.327       .  A
N2040      N2058   1.320       .  A
N2040      N2076   1.322       .  A
N2041      C2070   1.352       .  A
N2041      N2051   1.327       .  A
H2042      C2067   1.082   1_554  S
N2043      N2064   1.325       .  A
N2044      N2062   1.320       .  A
N2044      N2049   1.324       .  A
N2044     Co2763   2.085   1_545  S
C2045      C2073   1.460       .  S
C2045      N2049   1.350       .  A
N2046      C2061   1.332       .  A
N2046     Co2068   2.063       .  S
C2047      C2050   1.462       .  S
C2047      H2081   1.082   1_556  S
C2047      N2075   1.344       .  A
C2050      N2071   1.346       .  A
N2051      N2057   1.320       .  A
N2051     Co2761   2.095   1_545  S
N2052      C2078   1.334       .  A
N2052      N2054   1.319       .  A
N2052     Co2794   2.065   1_545  S
N2053      C2067   1.346       .  A
N2054      N2082   1.329       .  A
N2054     Co2435   2.100   1_546  S
H2055      C2078   1.081       .  S
H2056      C2073   1.081       .  S
N2057     Co2763   2.072   1_545  S
N2058     Co2072   2.090       .  S
N2059      N2071   1.319       .  A
N2059      N2075   1.319       .  A
N2059     Co2794   2.070   1_545  S
C2060      C2074   1.455       .  S
C2060      N2064   1.350       .  A
C2061      C2080   1.451       .  S
C2061      H2065   1.081       .  S
N2062      C2073   1.342       .  A
N2062     Co2798   2.088   1_545  S
C2066      C2078   1.452       .  S
C2066      N2082   1.355       .  A
Co2068     N2778   2.059       .  S
Co2068     N2785   2.067       .  S
N2069      C2080   1.352       .  A
Co2072     N2417   2.096       .  S
Co2072     N2788   2.096       .  S
Co2072    Cl2079   2.458       .  S
N2075     Co2398   2.085   1_546  S
C2083      C2088   1.386       .  A
C2083      C2084   1.399       .  A
C2083      S2089   1.701       .  A
C2084      C2085   1.399       .  A
C2084      H2095   1.083       .  S
C2085      C2094   1.369       .  A
C2085      C2086   1.386       .  A
C2086      C2087   1.406       .  A
C2086      S2092   1.710       .  A
C2087      C2088   1.407       .  A
C2087      H2096   1.083       .  S
C2088      C2091   1.377       .  A
S2089      C2090   1.726       .  A
C2090      C2091   1.392       .  A
C2091      H2097   1.082       .  S
S2092      C2093   1.731       .  A
C2093      C2094   1.387       .  A
C2094      H2098   1.083       .  S
C2099      C2104   1.385       .  A
C2099      C2100   1.401       .  A
C2099      S2105   1.704       .  A
C2100      C2101   1.402       .  A
C2100      H2111   1.083       .  S
C2101      C2110   1.369       .  A
C2101      C2102   1.385       .  A
C2102      C2103   1.403       .  A
C2102      S2108   1.708       .  A
C2103      C2104   1.405       .  A
C2103      H2112   1.083       .  S
C2104      C2107   1.373       .  A
S2105      C2106   1.728       .  A
C2106      C2107   1.393       .  A
C2107      H2113   1.082       .  S
S2108      C2109   1.728       .  A
C2109      C2110   1.391       .  A
C2110      H2114   1.082       .  S
C2115      C2120   1.385       .  A
C2115      C2116   1.400       .  A
C2115      S2121   1.702       .  A
C2116      C2117   1.401       .  A
C2116      H2127   1.083       .  S
C2117      C2126   1.369       .  A
C2117      C2118   1.384       .  A
C2118      C2119   1.404       .  A
C2118      S2124   1.709       .  A
C2119      C2120   1.405       .  A
C2119      H2128   1.082       .  S
C2120      C2123   1.372       .  A
S2121      C2122   1.729       .  A
C2122      C2123   1.393       .  A
C2123      H2129   1.081       .  S
S2124      C2125   1.730       .  A
C2125      C2126   1.392       .  A
C2126      H2130   1.082       .  S
C2131      C2136   1.385       .  A
C2131      C2132   1.402       .  A
C2131      S2137   1.701       .  A
C2132      C2133   1.401       .  A
C2132      H2143   1.083       .  S
C2133      C2142   1.373       .  A
C2133      C2134   1.386       .  A
C2134      C2135   1.402       .  A
C2134      S2140   1.700       .  A
C2135      C2136   1.402       .  A
C2135      H2144   1.083       .  S
C2136      C2139   1.374       .  A
S2137      C2138   1.731       .  A
C2138      C2139   1.392       .  A
C2139      H2145   1.082       .  S
S2140      C2141   1.731       .  A
C2141      C2142   1.389       .  A
C2142      H2146   1.082       .  S
C2147      C2152   1.384       .  A
C2147      C2148   1.401       .  A
C2147      S2153   1.701       .  A
C2148      C2149   1.401       .  A
C2148      H2159   1.083       .  S
C2149      C2158   1.372       .  A
C2149      C2150   1.384       .  A
C2150      C2151   1.403       .  A
C2150      S2156   1.701       .  A
C2151      C2152   1.403       .  A
C2151      H2160   1.083       .  S
C2152      C2155   1.373       .  A
S2153      C2154   1.732       .  A
C2154      C2155   1.395       .  A
C2155      H2161   1.081       .  S
S2156      C2157   1.734       .  A
C2157      C2158   1.392       .  A
C2158      H2162   1.081       .  S
C2163      C2168   1.385       .  A
C2163      C2164   1.400       .  A
C2163      S2169   1.707       .  A
C2164      C2165   1.402       .  A
C2164      H2175   1.083       .  S
C2165      C2174   1.367       .  A
C2165      C2166   1.385       .  A
C2166      C2167   1.405       .  A
C2166      S2172   1.713       .  A
C2167      C2168   1.407       .  A
C2167      H2176   1.083       .  S
C2168      C2171   1.372       .  A
S2169      C2170   1.726       .  A
C2170      C2171   1.394       .  A
C2171      H2177   1.082       .  S
S2172      C2173   1.730       .  A
C2173      C2174   1.390       .  A
C2174      H2178   1.082       .  S
C2179      C2180   1.403       .  A
C2179      C2184   1.410       .  A
C2179      C2533   1.493       .  S
C2180      C2181   1.401       .  A
C2180      H2185   1.081       .  S
C2181      C2182   1.401       .  A
C2181      C2423   1.467       .  S
C2182      C2183   1.400       .  A
C2182      H2186   1.084       .  S
C2183      C2184   1.409       .  A
C2183      C2287   1.477       .  S
C2184      H2187   1.083       .  S
C2188      C2189   1.406       .  A
C2188      C2193   1.403       .  A
C2188      C2536   1.490       .  S
C2189      C2190   1.403       .  A
C2189      H2194   1.081       .  S
C2190      C2191   1.403       .  A
C2190      C2317   1.473       .  S
C2191      C2192   1.402       .  A
C2191      H2195   1.084       .  S
C2192      C2193   1.406       .  A
C2192      C2393   1.472       .  S
C2193      H2196   1.083       .  S
C2197      C2198   1.409       .  A
C2197      C2202   1.403       .  A
C2197      C2520   1.494       .  S
C2198      C2199   1.410       .  A
C2198      H2203   1.082       .  S
C2199      C2200   1.406       .  A
C2199      C2340   1.477       .  S
C2200      C2201   1.400       .  A
C2200      H2204   1.084       .  S
C2201      C2202   1.401       .  A
C2201      C2443   1.473       .  S
C2202      H2205   1.081       .  S
C2206      C2207   1.408       .  A
C2206      C2211   1.403       .  A
C2206      C2517   1.494       .  S
C2207      C2208   1.408       .  A
C2207      H2212   1.082       .  S
C2208      C2209   1.404       .  A
C2208      C2401   1.476       .  S
C2209      C2210   1.400       .  A
C2209      H2213   1.084       .  S
C2210      C2211   1.404       .  A
C2210      C2370   1.473       .  S
C2211      H2214   1.082       .  S
C2215      C2216   1.410       .  A
C2215      C2220   1.400       .  A
C2215      C2504   1.490       .  S
C2216      C2217   1.411       .  A
C2216      H2221   1.082       .  S
C2217      C2218   1.402       .  A
C2217      C2348   1.472       .  S
C2218      C2219   1.396       .  A
C2218      H2222   1.084       .  S
C2219      C2220   1.397       .  A
C2219      C2337   1.464       .  S
C2220      H2223   1.082       .  S
C2224      C2225   1.403       .  A
C2224      C2229   1.410       .  A
C2224      C2501   1.495       .  S
C2225      C2226   1.400       .  A
C2225      H2230   1.081       .  S
C2226      C2227   1.402       .  A
C2226      C2390   1.474       .  S
C2227      C2228   1.406       .  A
C2227      H2231   1.084       .  S
C2228      C2229   1.412       .  A
C2228      C2295   1.480       .  S
C2229      H2232   1.082       .  S
C2233      C2234   1.404       .  A
C2233      C2238   1.405       .  A
C2233      C2485   1.492       .  S
C2234      C2235   1.403       .  A
C2234      H2239   1.082       .  S
C2235      C2236   1.398       .  A
C2235      C2413   1.468       .  S
C2236      C2237   1.400       .  A
C2236      H2240   1.084       .  S
C2237      C2238   1.404       .  A
C2237      C2376   1.466       .  S
C2238      H2241   1.080       .  S
C2242      C2243   1.405       .  A
C2242      C2247   1.406       .  A
C2242      C2488   1.494       .  S
C2243      C2244   1.406       .  A
C2243      H2248   1.082       .  S
C2244      C2245   1.399       .  A
C2244      C2355   1.470       .  S
C2245      C2246   1.399       .  A
C2245      H2249   1.084       .  S
C2246      C2247   1.405       .  A
C2246      C2433   1.470       .  S
C2247      H2250   1.080       .  S
C2251      C2252   1.403       .  A
C2251      C2256   1.406       .  A
C2251      C2472   1.490       .  S
C2252      C2253   1.404       .  A
C2252      H2257   1.083       .  S
C2253      C2254   1.401       .  A
C2253      C2307   1.472       .  S
C2254      C2255   1.403       .  A
C2254      H2258   1.084       .  S
C2255      C2256   1.406       .  A
C2255      C2380   1.473       .  S
C2256      H2259   1.082       .  S
C2260      C2261   1.407       .  A
C2260      C2265   1.404       .  A
C2260      C2469   1.491       .  S
C2261      C2262   1.410       .  A
C2261      H2266   1.083       .  S
C2262      C2263   1.402       .  A
C2262      C2360   1.476       .  S
C2263      C2264   1.401       .  A
C2263      H2267   1.084       .  S
C2264      C2265   1.403       .  A
C2264      C2327   1.470       .  S
C2265      H2268   1.081       .  S
C2269      C2270   1.407       .  A
C2269      C2274   1.403       .  A
C2269      C2453   1.487       .  S
C2270      C2271   1.408       .  A
C2270      H2275   1.083       .  S
C2271      C2272   1.405       .  A
C2271      C2302   1.473       .  S
C2272      C2273   1.398       .  A
C2272      H2276   1.084       .  S
C2273      C2274   1.402       .  A
C2273      C2429   1.471       .  S
C2274      H2277   1.083       .  S
C2278      C2279   1.403       .  A
C2278      C2283   1.404       .  A
C2278      C2456   1.488       .  S
C2279      C2280   1.404       .  A
C2279      H2284   1.083       .  S
C2280      C2281   1.406       .  A
C2280      C2408   1.472       .  S
C2281      C2282   1.402       .  A
C2281      H2285   1.084       .  S
C2282      C2283   1.409       .  A
C2282      C2323   1.479       .  S
C2283      H2286   1.082       .  S
C2287      C2324   1.467       .  S
C2287      N2305   1.345       .  A
N2288      N2305   1.322       .  A
N2288      N2310   1.319       .  A
N2288     Co2325   2.067       .  S
C2289      C2327   1.454       .  S
C2289      H2334   1.082       .  S
C2289      N2314   1.335       .  A
H2290      C2331   1.082       .  S
C2291      C2295   1.466       .  S
C2291      H2320   1.081       .  S
C2291      N2315   1.346       .  A
Co2292     N2310   2.104       .  S
Co2292     N2663   2.089   1_554  S
Co2292     N2332   2.093       .  S
Co2292     N2671   2.094   1_554  S
Co2292    Cl2336   2.454       .  S
N2293      C2331   1.339       .  A
N2293      N2300   1.321       .  A
N2293     Co2294   2.083       .  S
Co2294     N2297   2.077       .  S
Co2294     N2314   2.071       .  S
Co2294     N2301   2.088       .  S
Co2294    Cl2699   2.452       .  S
C2295      N2333   1.348       .  A
N2296      N2303   1.320       .  A
N2296      N2326   1.326       .  A
N2296     Co2329   2.084       .  S
N2297      N2315   1.320       .  A
N2297      N2333   1.324       .  A
N2298      C2327   1.351       .  A
N2298      N2308   1.327       .  A
H2299      C2324   1.081       .  S
N2300      N2321   1.326       .  A
N2300     Co2655   2.087       .  S
N2301      N2319   1.320       .  A
N2301      N2306   1.325       .  A
C2302      C2330   1.458       .  S
C2302      N2306   1.350       .  A
N2303      C2318   1.332       .  A
N2303     Co2325   2.064       .  S
C2304      C2307   1.464       .  S
C2304      H2338   1.081       .  S
C2304      N2332   1.346       .  A
C2307      N2328   1.345       .  A
N2308      N2314   1.321       .  A
N2308     Co2655   2.092       .  S
N2309      C2335   1.333       .  A
N2309      N2311   1.319       .  A
N2309     Co2325   2.060       .  S
N2310      C2324   1.347       .  A
N2311      N2339   1.331       .  A
N2311     Co2329   2.113       .  S
H2312      C2335   1.081       .  S
H2313      C2330   1.081       .  S
N2315     Co2692   2.104       .  S
N2316      N2328   1.319       .  A
N2316      N2332   1.319       .  A
N2316     Co2325   2.067       .  S
C2317      C2331   1.458       .  S
C2317      N2321   1.350       .  A
C2318      C2337   1.453       .  S
C2318      H2322   1.082       .  S
N2319      C2330   1.339       .  A
N2319     Co2692   2.079       .  S
C2323      C2335   1.449       .  S
C2323      N2339   1.358       .  A
Co2325    Cl2336   2.441       .  S
N2326      C2337   1.350       .  A
Co2329     N2678   2.105   1_554  S
Co2329     N2682   2.082   1_554  S
Co2329    Cl2336   2.455       .  S
Cl2336    Co2657   2.450   1_554  S
C2340      C2377   1.462       .  S
C2340      N2358   1.349       .  A
N2341      N2363   1.320       .  A
N2341     Co2378   2.080   1_455  S
C2342      C2380   1.455       .  S
C2342      H2387   1.082       .  S
C2342      N2367   1.337       .  A
H2343      C2384   1.082       .  S
C2344      C2348   1.461       .  S
C2344      H2373   1.082       .  S
Co2345     N2726   2.097   1_654  S
Co2345     N2353   2.106   1_655  S
Co2345     N2748   2.097   1_554  S
Co2345     N2361   2.094       .  S
Co2345    Cl2389   2.456       .  S
N2346      N2353   1.320       .  A
N2346     Co2347   2.067   1_455  S
Co2347     N2350   2.072   1_655  S
Co2347     N2367   2.072       .  S
Co2347     N2354   2.066       .  S
Co2347    Cl2389   2.445       .  S
C2348      N2386   1.348       .  A
N2349      N2356   1.321       .  A
N2349     Co2745   2.094   1_455  S
N2350      N2368   1.320       .  A
N2351      C2380   1.352       .  A
N2351      N2361   1.327       .  A
H2352      C2377   1.082       .  S
N2354      N2372   1.320       .  A
N2354      N2359   1.320       .  A
C2355      C2383   1.464       .  S
C2355      N2359   1.345       .  A
N2356     Co2378   2.064   1_455  S
C2357      C2360   1.468       .  S
C2357      H2391   1.081       .  S
C2357      N2385   1.347       .  A
C2360      N2381   1.345       .  A
N2361      N2367   1.320       .  A
N2362      C2388   1.335       .  A
N2362      N2364   1.320       .  A
N2362     Co2378   2.069       .  S
N2363     Co2708   2.094   1_455  S
N2364      N2392   1.325       .  A
N2364     Co2745   2.083       .  S
H2365      C2388   1.081       .  S
H2366      C2383   1.082       .  S
N2368     Co2382   2.089   1_455  S
N2369      N2381   1.321       .  A
N2369      N2385   1.320       .  A
N2369     Co2378   2.067       .  S
C2370      C2384   1.452       .  S
C2370      N2374   1.354       .  A
C2371      C2390   1.455       .  S
C2371      H2375   1.082       .  S
N2372      C2383   1.345       .  A
N2372     Co2382   2.095       .  S
C2376      C2388   1.453       .  S
C2376      N2392   1.350       .  A
Co2378    Cl2752   2.446       .  S
N2379      C2390   1.352       .  A
Co2382     N2712   2.097   1_654  S
Co2382     N2727   2.092   1_554  S
Co2382    Cl2389   2.457       .  S
N2385     Co2708   2.105       .  S
Cl2389    Co2741   2.444   1_554  S
C2393      C2430   1.465       .  S
C2393      N2411   1.345       .  A
N2394      N2411   1.320       .  A
N2394      N2416   1.319       .  A
N2394     Co2431   2.066       .  S
C2395      C2433   1.452       .  S
C2395      H2440   1.081       .  S
C2395      N2420   1.334       .  A
H2396      C2437   1.081       .  S
C2397      C2401   1.463       .  S
C2397      H2426   1.082       .  S
C2397      N2421   1.343       .  A
Co2398     N2779   2.102   1_554  S
Co2398     N2406   2.080       .  S
Co2398    Cl2442   2.457       .  S
N2399      C2437   1.337       .  A
N2399      N2406   1.321       .  A
N2399     Co2400   2.080       .  S
Co2400     N2403   2.079       .  S
Co2400    Cl2442   2.449       .  S
C2401      N2439   1.348       .  A
N2402      N2409   1.319       .  A
N2402      N2432   1.329       .  A
N2402     Co2798   2.093       .  S
N2403      N2421   1.320       .  A
N2403      N2439   1.323       .  A
N2404      C2433   1.353       .  A
N2404      N2414   1.327       .  A
H2405      C2430   1.082       .  S
N2406      N2427   1.325       .  A
N2407      N2425   1.320       .  A
N2407      N2412   1.323       .  A
C2408      C2436   1.458       .  S
C2408      N2412   1.350       .  A
N2409      C2424   1.333       .  A
N2409     Co2431   2.065       .  S
C2410      C2413   1.463       .  S
C2410      H2444   1.082       .  S
C2410      N2438   1.344       .  A
C2413      N2434   1.344       .  A
N2414      N2420   1.320       .  A
N2415      C2441   1.333       .  A
N2415      N2417   1.319       .  A
N2416      C2430   1.346       .  A
N2416     Co2761   2.095       .  S
N2417      N2445   1.329       .  A
H2418      C2441   1.082       .  S
H2419      C2436   1.081       .  S
N2421     Co2435   2.093       .  S
N2422      N2434   1.318       .  A
N2422      N2438   1.319       .  A
C2423      C2437   1.457       .  S
C2423      N2427   1.348       .  A
C2424      C2443   1.453       .  S
C2424      H2428   1.081       .  S
N2425      C2436   1.341       .  A
C2429      C2441   1.451       .  S
C2429      N2445   1.354       .  A
Co2431    Cl2805   2.439       .  S
N2432      C2443   1.353       .  A
Co2435     N2765   2.097   1_554  S
Co2435    Cl2442   2.458       .  S
Cl2442    Co2794   2.442   1_554  S
C2446      C2451   1.386       .  A
C2446      C2447   1.400       .  A
C2446      S2452   1.703       .  A
C2447      C2448   1.401       .  A
C2447      H2458   1.083       .  S
C2448      C2457   1.369       .  A
C2448      C2449   1.385       .  A
C2449      C2450   1.404       .  A
C2449      S2455   1.710       .  A
C2450      C2451   1.405       .  A
C2450      H2459   1.083       .  S
C2451      C2454   1.374       .  A
S2452      C2453   1.728       .  A
C2453      C2454   1.391       .  A
C2454      H2460   1.082       .  S
S2455      C2456   1.729       .  A
C2456      C2457   1.389       .  A
C2457      H2461   1.083       .  S
C2462      C2467   1.385       .  A
C2462      C2463   1.404       .  A
C2462      S2468   1.709       .  A
C2463      C2464   1.404       .  A
C2463      H2474   1.082       .  S
C2464      C2473   1.373       .  A
C2464      C2465   1.385       .  A
C2465      C2466   1.402       .  A
C2465      S2471   1.704       .  A
C2466      C2467   1.403       .  A
C2466      H2475   1.083       .  S
C2467      C2470   1.370       .  A
S2468      C2469   1.728       .  A
C2469      C2470   1.392       .  A
C2470      H2476   1.082       .  S
S2471      C2472   1.729       .  A
C2472      C2473   1.392       .  A
C2473      H2477   1.082       .  S
C2478      C2483   1.384       .  A
C2478      C2479   1.398       .  A
C2478      S2484   1.699       .  A
C2479      C2480   1.400       .  A
C2479      H2490   1.083       .  S
C2480      C2489   1.368       .  A
C2480      C2481   1.384       .  A
C2481      C2482   1.403       .  A
C2481      S2487   1.705       .  A
C2482      C2483   1.404       .  A
C2482      H2491   1.082       .  S
C2483      C2486   1.371       .  A
S2484      C2485   1.729       .  A
C2485      C2486   1.394       .  A
C2486      H2492   1.081       .  S
S2487      C2488   1.732       .  A
C2488      C2489   1.392       .  A
C2489      H2493   1.081       .  S
C2494      C2499   1.385       .  A
C2494      C2495   1.403       .  A
C2494      S2500   1.701       .  A
C2495      C2496   1.402       .  A
C2495      H2506   1.083       .  S
C2496      C2505   1.375       .  A
C2496      C2497   1.385       .  A
C2497      C2498   1.402       .  A
C2497      S2503   1.698       .  A
C2498      C2499   1.401       .  A
C2498      H2507   1.083       .  S
C2499      C2502   1.374       .  A
S2500      C2501   1.733       .  A
C2501      C2502   1.391       .  A
C2502      H2508   1.082       .  S
S2503      C2504   1.731       .  A
C2504      C2505   1.390       .  A
C2505      H2509   1.082       .  S
C2510      C2515   1.385       .  A
C2510      C2511   1.405       .  A
C2510      S2516   1.706       .  A
C2511      C2512   1.405       .  A
C2511      H2522   1.083       .  S
C2512      C2521   1.376       .  A
C2512      C2513   1.385       .  A
C2513      C2514   1.400       .  A
C2513      S2519   1.699       .  A
C2514      C2515   1.400       .  A
C2514      H2523   1.083       .  S
C2515      C2518   1.371       .  A
S2516      C2517   1.733       .  A
C2517      C2518   1.391       .  A
C2518      H2524   1.082       .  S
S2519      C2520   1.730       .  A
C2520      C2521   1.393       .  A
C2521      H2525   1.082       .  S
C2526      C2531   1.384       .  A
C2526      C2527   1.399       .  A
C2526      S2532   1.704       .  A
C2527      C2528   1.400       .  A
C2527      H2538   1.083       .  S
C2528      C2537   1.367       .  A
C2528      C2529   1.385       .  A
C2529      C2530   1.405       .  A
C2529      S2535   1.710       .  A
C2530      C2531   1.407       .  A
C2530      H2539   1.083       .  S
C2531      C2534   1.372       .  A
S2532      C2533   1.726       .  A
C2533      C2534   1.396       .  A
C2534      H2540   1.081       .  S
S2535      C2536   1.731       .  A
C2536      C2537   1.389       .  A
C2537      H2541   1.082       .  S
C2542      C2543   1.402       .  A
C2542      C2547   1.405       .  A
C2542      C2896   1.486       .  S
C2543      C2544   1.400       .  A
C2543      H2548   1.083       .  S
C2544      C2545   1.401       .  A
C2544      C2786   1.467       .  S
C2545      C2546   1.401       .  A
C2545      H2549   1.084       .  S
C2546      C2547   1.407       .  A
C2546      C2650   1.472       .  S
C2547      H2550   1.083       .  S
C2551      C2552   1.404       .  A
C2551      C2556   1.407       .  A
C2551      C2899   1.489       .  S
C2552      C2553   1.402       .  A
C2552      H2557   1.082       .  S
C2553      C2554   1.403       .  A
C2553      C2680   1.472       .  S
C2554      C2555   1.403       .  A
C2554      H2558   1.084       .  S
C2555      C2556   1.408       .  A
C2555      C2756   1.478       .  S
C2556      H2559   1.083       .  S
C2560      C2561   1.409       .  A
C2560      C2565   1.404       .  A
C2560      C2883   1.493       .  S
C2561      C2562   1.410       .  A
C2561      H2566   1.082       .  S
C2562      C2563   1.405       .  A
C2562      C2703   1.477       .  S
C2563      C2564   1.400       .  A
C2563      H2567   1.084       .  S
C2564      C2565   1.402       .  A
C2564      C2806   1.474       .  S
C2565      H2568   1.082       .  S
C2569      C2570   1.407       .  A
C2569      C2574   1.403       .  A
C2569      C2880   1.493       .  S
C2570      C2571   1.407       .  A
C2570      H2575   1.082       .  S
C2571      C2572   1.404       .  A
C2571      C2764   1.475       .  S
C2572      C2573   1.401       .  A
C2572      H2576   1.084       .  S
C2573      C2574   1.406       .  A
C2573      C2733   1.475       .  S
C2574      H2577   1.082       .  S
C2578      C2579   1.409       .  A
C2578      C2583   1.401       .  A
C2578      C2867   1.490       .  S
C2579      C2580   1.411       .  A
C2579      H2584   1.082       .  S
C2580      C2581   1.405       .  A
C2580      C2711   1.475       .  S
C2581      C2582   1.400       .  A
C2581      H2585   1.084       .  S
C2582      C2583   1.397       .  A
C2582      C2700   1.468       .  S
C2583      H2586   1.082       .  S
C2587      C2588   1.402       .  A
C2587      C2592   1.411       .  A
C2587      C2864   1.493       .  S
C2588      C2589   1.400       .  A
C2588      H2593   1.082       .  S
C2589      C2590   1.400       .  A
C2589      C2753   1.469       .  S
C2590      C2591   1.403       .  A
C2590      H2594   1.084       .  S
C2591      C2592   1.411       .  A
C2591      C2658   1.479       .  S
C2592      H2595   1.082       .  S
C2596      C2597   1.404       .  A
C2596      C2601   1.407       .  A
C2596      C2848   1.493       .  S
C2597      C2598   1.403       .  A
C2597      H2602   1.083       .  S
C2598      C2599   1.399       .  A
C2598      C2776   1.469       .  S
C2599      C2600   1.402       .  A
C2599      H2603   1.084       .  S
C2600      C2601   1.409       .  A
C2600      C2739   1.472       .  S
C2601      H2604   1.082       .  S
C2605      C2606   1.406       .  A
C2605      C2610   1.406       .  A
C2605      C2851   1.493       .  S
C2606      C2607   1.408       .  A
C2606      H2611   1.083       .  S
C2607      C2608   1.402       .  A
C2607      C2718   1.475       .  S
C2608      C2609   1.401       .  A
C2608      H2612   1.084       .  S
C2609      C2610   1.405       .  A
C2609      C2796   1.474       .  S
C2610      H2613   1.081       .  S
C2614      C2615   1.409       .  A
C2614      C2619   1.407       .  A
C2614      C2835   1.498       .  S
C2615      C2616   1.406       .  A
C2615      H2620   1.082       .  S
C2616      C2617   1.402       .  A
C2616      C2670   1.476       .  S
C2617      C2618   1.402       .  A
C2617      H2621   1.084       .  S
C2618      C2619   1.404       .  A
C2618      C2743   1.473       .  S
C2619      H2622   1.079       .  S
C2623      C2624   1.407       .  A
C2623      C2628   1.407       .  A
C2623      C2832   1.498       .  S
C2624      C2625   1.406       .  A
C2624      H2629   1.082       .  S
C2625      C2626   1.400       .  A
C2625      C2723   1.471       .  S
C2626      C2627   1.400       .  A
C2626      H2630   1.084       .  S
C2627      C2628   1.404       .  A
C2627      C2690   1.470       .  S
C2628      H2631   1.079       .  S
C2632      C2633   1.406       .  A
C2632      C2637   1.403       .  A
C2632      C2816   1.487       .  S
C2633      C2634   1.408       .  A
C2633      H2638   1.083       .  S
C2634      C2635   1.403       .  A
C2634      C2665   1.470       .  S
C2635      C2636   1.398       .  A
C2635      H2639   1.084       .  S
C2636      C2637   1.403       .  A
C2636      C2792   1.470       .  S
C2637      H2640   1.083       .  S
C2641      C2642   1.407       .  A
C2641      C2646   1.403       .  A
C2641      C2819   1.491       .  S
C2642      C2643   1.408       .  A
C2642      H2647   1.083       .  S
C2643      C2644   1.405       .  A
C2643      C2771   1.477       .  S
C2644      C2645   1.402       .  A
C2644      H2648   1.084       .  S
C2645      C2646   1.406       .  A
C2645      C2686   1.476       .  S
C2646      H2649   1.082       .  S
C2650      C2687   1.463       .  S
C2650      N2668   1.346       .  A
N2651      N2668   1.322       .  A
N2651      N2673   1.319       .  A
N2651     Co2688   2.069       .  S
C2652      C2690   1.454       .  S
C2652      H2697   1.081       .  S
C2652      N2677   1.336       .  A
H2653      C2694   1.082       .  S
C2654      C2658   1.465       .  S
C2654      H2683   1.081       .  S
C2654      N2678   1.345       .  A
Co2655     N2673   2.094       .  S
Co2655     N2695   2.093       .  S
Co2655    Cl2699   2.454       .  S
N2656      C2694   1.338       .  A
N2656      N2663   1.321       .  A
N2656     Co2657   2.081       .  S
Co2657     N2660   2.075       .  S
Co2657     N2677   2.068       .  S
Co2657     N2664   2.082       .  S
C2658      N2696   1.347       .  A
N2659      N2666   1.320       .  A
N2659      N2689   1.326       .  A
N2659     Co2692   2.079       .  S
N2660      N2678   1.321       .  A
N2660      N2696   1.324       .  A
N2661      C2690   1.351       .  A
N2661      N2671   1.327       .  A
H2662      C2687   1.081       .  S
N2663      N2684   1.326       .  A
N2664      N2682   1.320       .  A
N2664      N2669   1.324       .  A
C2665      C2693   1.459       .  S
C2665      N2669   1.348       .  A
N2666      C2681   1.335       .  A
N2666     Co2688   2.077       .  S
C2667      C2670   1.464       .  S
C2667      H2701   1.081       .  S
C2667      N2695   1.345       .  A
C2670      N2691   1.348       .  A
N2671      N2677   1.320       .  A
N2672      C2698   1.334       .  A
N2672      N2674   1.320       .  A
N2672     Co2688   2.063       .  S
N2673      C2687   1.344       .  A
N2674      N2702   1.330       .  A
N2674     Co2692   2.107       .  S
H2675      C2698   1.082       .  S
H2676      C2693   1.081       .  S
N2679      N2691   1.323       .  A
N2679      N2695   1.320       .  A
N2679     Co2688   2.080       .  S
C2680      C2694   1.457       .  S
C2680      N2684   1.350       .  A
C2681      C2700   1.456       .  S
C2681      H2685   1.082       .  S
N2682      C2693   1.340       .  A
C2686      C2698   1.452       .  S
C2686      N2702   1.356       .  A
Co2688    Cl2699   2.445       .  S
N2689      C2700   1.349       .  A
Co2692    Cl2699   2.455       .  S
C2703      C2740   1.462       .  S
C2703      N2721   1.349       .  A
N2704      N2726   1.320       .  A
N2704     Co2741   2.079   1_455  S
C2705      C2743   1.456       .  S
C2705      H2750   1.081       .  S
C2705      N2730   1.337       .  A
H2706      C2747   1.081       .  S
C2707      C2711   1.462       .  S
C2707      H2736   1.082       .  S
Co2708     N2716   2.107   1_655  S
Co2708     N2724   2.090       .  S
Co2708    Cl2752   2.455       .  S
N2709      N2716   1.321       .  A
N2709     Co2710   2.065   1_455  S
Co2710     N2713   2.082   1_655  S
Co2710     N2730   2.077       .  S
Co2710     N2717   2.070       .  S
Co2710    Cl2752   2.446       .  S
C2711      N2749   1.348       .  A
N2712      N2719   1.320       .  A
N2713      N2731   1.319       .  A
N2714      C2743   1.351       .  A
N2714      N2724   1.327       .  A
H2715      C2740   1.082       .  S
N2717      N2735   1.319       .  A
N2717      N2722   1.321       .  A
C2718      C2746   1.465       .  S
C2718      N2722   1.346       .  A
N2719     Co2741   2.059   1_455  S
C2720      C2723   1.464       .  S
C2720      H2754   1.082   1_556  S
C2720      N2748   1.345       .  A
C2723      N2744   1.345       .  A
N2724      N2730   1.320       .  A
N2725      C2751   1.336       .  A
N2725      N2727   1.320       .  A
N2725     Co2741   2.073       .  S
N2727      N2755   1.327       .  A
H2728      C2751   1.081       .  S
H2729      C2746   1.082       .  S
N2731     Co2745   2.084   1_455  S
N2732      N2744   1.320       .  A
N2732      N2748   1.320       .  A
N2732     Co2741   2.064       .  S
C2733      C2747   1.451       .  S
C2733      N2737   1.355       .  A
C2734      C2753   1.454       .  S
C2734      H2738   1.082       .  S
N2735      C2746   1.345       .  A
N2735     Co2745   2.097       .  S
C2739      C2751   1.454       .  S
C2739      N2755   1.353       .  A
N2742      C2753   1.352       .  A
Co2745    Cl2752   2.456       .  S
C2756      C2793   1.466       .  S
C2756      N2774   1.347       .  A
N2757      N2774   1.323       .  A
N2757      N2779   1.320       .  A
N2757     Co2794   2.072       .  S
C2758      C2796   1.455       .  S
C2758      H2803   1.081       .  S
C2758      N2783   1.336       .  A
H2759      C2800   1.081       .  S
C2760      C2764   1.463       .  S
C2760      H2789   1.081       .  S
C2760      N2784   1.344       .  A
Co2761     N2769   2.081       .  S
Co2761    Cl2805   2.456       .  S
N2762      C2800   1.337       .  A
N2762      N2769   1.320       .  A
N2762     Co2763   2.078       .  S
Co2763     N2766   2.075       .  S
Co2763    Cl2805   2.444       .  S
C2764      N2802   1.347       .  A
N2765      N2772   1.320       .  A
N2765      N2795   1.329       .  A
N2766      N2784   1.320       .  A
N2766      N2802   1.322       .  A
N2767      C2796   1.352       .  A
N2767      N2777   1.327       .  A
H2768      C2793   1.082   1_554  S
N2769      N2790   1.325       .  A
N2770      N2788   1.321       .  A
N2770      N2775   1.323       .  A
C2771      C2799   1.464       .  S
C2771      N2775   1.348       .  A
N2772      C2787   1.334       .  A
N2772     Co2794   2.071       .  S
C2773      C2776   1.463       .  S
C2773      H2807   1.082   1_556  S
C2773      N2801   1.344       .  A
C2776      N2797   1.345       .  A
N2777      N2783   1.320       .  A
N2778      C2804   1.333       .  A
N2778      N2780   1.319       .  A
N2779      C2793   1.346       .  A
N2780      N2808   1.328       .  A
H2781      C2804   1.082       .  S
H2782      C2799   1.081       .  S
N2784     Co2798   2.094       .  S
N2785      N2797   1.319       .  A
N2785      N2801   1.319       .  A
C2786      C2800   1.456       .  S
C2786      N2790   1.349       .  A
C2787      C2806   1.455       .  S
C2787      H2791   1.082       .  S
N2788      C2799   1.344       .  A
C2792      C2804   1.450       .  S
C2792      N2808   1.354       .  A
N2795      C2806   1.353       .  A
Co2798    Cl2805   2.457       .  S
C2809      C2814   1.386       .  A
C2809      C2810   1.401       .  A
C2809      S2815   1.703       .  A
C2810      C2811   1.401       .  A
C2810      H2821   1.083       .  S
C2811      C2820   1.372       .  A
C2811      C2812   1.385       .  A
C2812      C2813   1.406       .  A
C2812      S2818   1.709       .  A
C2813      C2814   1.406       .  A
C2813      H2822   1.083       .  S
C2814      C2817   1.375       .  A
S2815      C2816   1.727       .  A
C2816      C2817   1.391       .  A
C2817      H2823   1.082       .  S
S2818      C2819   1.731       .  A
C2819      C2820   1.390       .  A
C2820      H2824   1.082       .  S
C2825      C2830   1.383       .  A
C2825      C2826   1.403       .  A
C2825      S2831   1.705       .  A
C2826      C2827   1.404       .  A
C2826      H2837   1.083       .  S
C2827      C2836   1.371       .  A
C2827      C2828   1.383       .  A
C2828      C2829   1.401       .  A
C2828      S2834   1.704       .  A
C2829      C2830   1.402       .  A
C2829      H2838   1.083       .  S
C2830      C2833   1.369       .  A
S2831      C2832   1.732       .  A
C2832      C2833   1.394       .  A
C2833      H2839   1.080       .  S
S2834      C2835   1.730       .  A
C2835      C2836   1.396       .  A
C2836      H2840   1.080       .  S
C2841      C2846   1.385       .  A
C2841      C2842   1.399       .  A
C2841      S2847   1.700       .  A
C2842      C2843   1.400       .  A
C2842      H2853   1.083       .  S
C2843      C2852   1.369       .  A
C2843      C2844   1.384       .  A
C2844      C2845   1.406       .  A
C2844      S2850   1.710       .  A
C2845      C2846   1.407       .  A
C2845      H2854   1.082       .  S
C2846      C2849   1.376       .  A
S2847      C2848   1.728       .  A
C2848      C2849   1.394       .  A
C2849      H2855   1.082       .  S
S2850      C2851   1.731       .  A
C2851      C2852   1.391       .  A
C2852      H2856   1.082       .  S
C2857      C2862   1.385       .  A
C2857      C2858   1.405       .  A
C2857      S2863   1.703       .  A
C2858      C2859   1.404       .  A
C2858      H2869   1.083       .  S
C2859      C2868   1.376       .  A
C2859      C2860   1.386       .  A
C2860      C2861   1.400       .  A
C2860      S2866   1.697       .  A
C2861      C2862   1.400       .  A
C2861      H2870   1.083       .  S
C2862      C2865   1.373       .  A
S2863      C2864   1.733       .  A
C2864      C2865   1.390       .  A
C2865      H2871   1.082       .  S
S2866      C2867   1.729       .  A
C2867      C2868   1.392       .  A
C2868      H2872   1.082       .  S
C2873      C2878   1.385       .  A
C2873      C2874   1.406       .  A
C2873      S2879   1.708       .  A
C2874      C2875   1.406       .  A
C2874      H2885   1.083       .  S
C2875      C2884   1.376       .  A
C2875      C2876   1.385       .  A
C2876      C2877   1.400       .  A
C2876      S2882   1.702       .  A
C2877      C2878   1.401       .  A
C2877      H2886   1.083       .  S
C2878      C2881   1.371       .  A
S2879      C2880   1.732       .  A
C2880      C2881   1.390       .  A
C2881      H2887   1.082       .  S
S2882      C2883   1.729       .  A
C2883      C2884   1.393       .  A
C2884      H2888   1.082       .  S
C2889      C2894   1.385       .  A
C2889      C2890   1.402       .  A
C2889      S2895   1.708       .  A
C2890      C2891   1.404       .  A
C2890      H2901   1.083       .  S
C2891      C2900   1.370       .  A
C2891      C2892   1.385       .  A
C2892      C2893   1.401       .  A
C2892      S2898   1.707       .  A
C2893      C2894   1.403       .  A
C2893      H2902   1.083       .  S
C2894      C2897   1.368       .  A
S2895      C2896   1.726       .  A
C2896      C2897   1.391       .  A
C2897      H2903   1.082       .  S
S2898      C2899   1.728       .  A
C2899      C2900   1.392       .  A
C2900      H2904   1.082       .  S
