geometry optimzed in LAMMPS
_audit_creation_date              2020-12-01 
_audit_creation_method            'lammps2cif' 
_symmetry_space_group_name_H-M    'P1' 
_symmetry_Int_Tables_number       1 
_symmetry_cell_setting            triclinic 
loop_ 
_symmetry_equiv_pos_as_xyz 
  x,y,z 
_cell_length_a                    40.20784996 
_cell_length_b                    40.14887539570673 
_cell_length_c                    42.58462867977208 
_cell_angle_alpha                 91.28051660101981 
_cell_angle_beta                  89.93991934078952 
_cell_angle_gamma                 90.0146124743302 
loop_ 
_atom_site_label 
_atom_site_type_symbol 
_atom_site_fract_x 
_atom_site_fract_y 
_atom_site_fract_z 
_atom_site_charge 
C1          C  0.17041069  0.16872584  0.19455547     0.42900
N2          N  0.20316731  0.18599077  0.23096702     0.01800
C3          C  0.21477270  0.34402954  0.29758262    -0.06100
H4          H  0.21819137  0.34638863  0.17918683     0.07300
C5          C  0.33248448  0.27406818  0.18861196    -0.06400
Co6        Co  0.18671213  0.25461010  0.25434026     0.74200
N7          N  0.21282181  0.30477897  0.20992037    -0.25600
Co8        Co  0.25234610  0.30855422  0.24186425     0.74100
C9          C  0.32499583  0.30412544  0.17144230     0.43000
N10         N  0.30094194  0.19873916  0.22242421     0.01400
N11         N  0.28809615  0.29780449  0.20734484     0.01500
N12         N  0.17291360  0.30738528  0.30531276    -0.46400
H13         H  0.14080863  0.21803847  0.19590062     0.07300
N14         N  0.18803833  0.28392092  0.21480007     0.01800
N15         N  0.29059497  0.31130911  0.27469045     0.01600
C16         C  0.32181704  0.32797292  0.31273555     0.43200
N17         N  0.27612660  0.17836806  0.22878385    -0.25000
C18         C  0.16238926  0.22602561  0.31675975    -0.06000
N19         N  0.19659327  0.16005715  0.21227261    -0.46100
N20         N  0.29615870  0.33668940  0.29438273    -0.46400
C21         C  0.17026497  0.19729706  0.33539715     0.42900
N22         N  0.19261016  0.29742207  0.28204641     0.01800
N23         N  0.28105316  0.19307417  0.29533444    -0.25100
N24         N  0.18265808  0.21117343  0.22680782    -0.25600
N25         N  0.30603425  0.21347343  0.28976822     0.01500
H26         H  0.27506226  0.15298377  0.32776066     0.07300
H27         H  0.35198531  0.27897470  0.31096930     0.07400
N28         N  0.21735304  0.31825467  0.27709348    -0.25600
N29         N  0.30873115  0.27250989  0.21066083    -0.25200
N30         N  0.20598151  0.20070674  0.29816597     0.01800
C31         C  0.17043846  0.31443916  0.17760963     0.43200
C32         C  0.27838067  0.15102468  0.21032335    -0.06500
N33         N  0.31137797  0.28624131  0.27850846    -0.25200
H34         H  0.35431964  0.25836622  0.18720860     0.07400
N35         N  0.16220080  0.28917280  0.19634087    -0.46400
H36         H  0.26188455  0.12975774  0.21076167     0.07400
C37         C  0.32304779  0.18466122  0.32829644     0.43100
C38         C  0.16092679  0.20264597  0.20411895    -0.06000
Co39       Co  0.24146957  0.18903876  0.26372254     0.73800
N40         N  0.32059535  0.18644443  0.19987830    -0.46200
C41         C  0.18554188  0.33645484  0.31637975     0.43300
N42         N  0.19731316  0.18237616  0.32237369    -0.46100
Co43       Co  0.30740281  0.24265381  0.25013173     0.73900
C44         C  0.33219945  0.29445920  0.30222607    -0.06500
C45         C  0.20418860  0.32490156  0.18648771    -0.06000
N46         N  0.18538674  0.22579854  0.29404289    -0.25600
N47         N  0.29736403  0.31775601  0.18451307    -0.46300
H48         H  0.23129083  0.36526154  0.29912828     0.07300
C49         C  0.28936898  0.17388636  0.31955637    -0.06400
Cl50       Cl  0.24704280  0.24868614  0.25237803    -0.49500
C51         C  0.30749654  0.15651069  0.19100674     0.43100
H52         H  0.14103567  0.24237840  0.31817667     0.07300
N53         N  0.33162795  0.20897590  0.30866398    -0.46200
C54         C  0.37507614  0.36358318  0.38191649     0.87000
C55         C  0.39920946  0.34521129  0.40375052    -0.53300
C56         C  0.41678283  0.36582685  0.42337224     0.09900
C57         C  0.40853535  0.40303180  0.41941589     0.20800
C58         C  0.35283258  0.38502264  0.40434138    -0.54000
C59         C  0.37065143  0.40584734  0.42403889     0.10000
C60         C  0.39694005  0.38895966  0.36471177    -0.53500
C61         C  0.41417958  0.40986092  0.38436569     0.10600
H62         H  0.40188226  0.31830286  0.40395121     0.15100
H63         H  0.42304296  0.41984110  0.43534169     0.00800
H64         H  0.32584911  0.38452361  0.40393689     0.15400
H65         H  0.39923440  0.38975432  0.33932804     0.15200
C66         C  0.36494847  0.12419530  0.38553688     0.87000
C67         C  0.38813989  0.10117121  0.36578754    -0.53300
C68         C  0.41002640  0.08354448  0.38349728     0.09900
C69         C  0.40687056  0.09105770  0.41906469     0.20800
C70         C  0.34825076  0.10112163  0.40913247    -0.54000
C71         C  0.37015112  0.08392274  0.42675300     0.10000
C72         C  0.38840293  0.14664078  0.40559832    -0.53500
C73         C  0.41064187  0.12920858  0.42304016     0.10600
H74         H  0.38727452  0.09903232  0.34034331     0.15100
H75         H  0.42461702  0.07676024  0.43353975     0.00800
H76         H  0.32150894  0.09816606  0.41143283     0.15400
H77         H  0.38693155  0.17364309  0.40655010     0.15200
C78         C  0.12647950  0.36760471  0.38183636     0.87000
C79         C  0.14721523  0.38932282  0.40489127    -0.53300
C80         C  0.12824609  0.40921858  0.42412993     0.09900
C81         C  0.09052104  0.40532146  0.41862405     0.20800
C82         C  0.10234264  0.34800478  0.40277902    -0.54000
C83         C  0.08346367  0.36780128  0.42213329     0.10000
C84         C  0.10430175  0.39225127  0.36414487    -0.53500
C85         C  0.08552764  0.41215228  0.38343267     0.10600
H86         H  0.17421029  0.38994055  0.40506610     0.15100
H87         H  0.07511305  0.42153258  0.43434857     0.00800
H88         H  0.10093252  0.32100025  0.40289339     0.15400
H89         H  0.10282162  0.39311946  0.33871453     0.15200
C90         C  0.12306700  0.13126724  0.38363748     0.87000
C91         C  0.10162085  0.10589626  0.36480677    -0.53300
C92         C  0.08137267  0.08707969  0.38302409     0.09900
C93         C  0.08456448  0.09542359  0.41843422     0.20800
C94         C  0.09780635  0.15207165  0.40354302    -0.54000
C95         C  0.07757855  0.13306829  0.42166367     0.10000
C96         C  0.14196403  0.11049594  0.40767408    -0.53500
C97         C  0.12189817  0.09187082  0.42599614     0.10600
H98         H  0.10198040  0.10353927  0.33935692     0.15100
H99         H  0.06826322  0.07998529  0.43338567     0.00800
H100        H  0.09659618  0.17900704  0.40473054     0.15400
H101        H  0.16890988  0.10970935  0.40934414     0.15200
N102        N  0.44768043  0.49483498  0.37150869    -0.36100
N103        N  0.49938291  0.44462690  0.37254184    -0.56700
N104        N  0.05018657  0.49550740  0.37060154    -0.36100
N105        N  0.49625691  0.05157118  0.36930384    -0.56700
C106        C  0.42975018  0.46680275  0.36596203     0.27500
C107        C  0.42747295  0.02634510  0.36497965     0.27500
C108        C  0.06780828  0.46775548  0.36325378     0.27400
C109        C  0.06559056  0.02960148  0.36402448     0.27400
C110        C  0.47282801  0.42412684  0.37329519     0.36100
C111        C  0.02629350  0.42456724  0.37284912     0.36100
C112        C  0.46897984  0.07123931  0.36989563     0.36100
C113        C  0.02262758  0.07249437  0.36991823     0.36100
C114        C  0.40007036  0.47480830  0.35164805    -0.21400
C115        C  0.39842808  0.01530852  0.35084207    -0.21400
C116        C  0.09564821  0.47603795  0.34600831    -0.21400
C117        C  0.09407590  0.01990793  0.34807985    -0.21400
C118        C  0.48288229  0.39132137  0.37190037    -0.22500
C119        C  0.01689213  0.39159885  0.37167799    -0.22500
C120        C  0.47804530  0.10426001  0.36862166    -0.22500
C121        C  0.01214438  0.10505689  0.36860510    -0.22500
C122        C  0.43947312  0.43431339  0.37374147    -0.17800
C123        C  0.43586232  0.06000908  0.37079506    -0.17800
C124        C  0.05616811  0.06269370  0.37065694    -0.17800
C125        C  0.05938977  0.43539374  0.37228405    -0.17800
H126        H  0.38099553  0.45769887  0.34350134     0.15100
H127        H  0.37888658  0.03049727  0.34117534     0.15100
H128        H  0.11411182  0.45917179  0.33620959     0.15100
H129        H  0.11241977  0.03594941  0.33757097     0.15100
H130        H  0.46711184  0.36971508  0.36895951     0.13400
H131        H  0.03305964  0.37032275  0.36845926     0.13400
H132        H  0.46153353  0.12519988  0.36591122     0.13400
H133        H  0.02772947  0.12670422  0.36588465     0.13400
H134        H  0.47024497  0.49651168  0.38335713     0.26600
H135        H  0.02899589  0.49695400  0.38465456     0.26600
C136        C  0.37044850  0.37408385  0.12534735     0.87000
C137        C  0.39197120  0.39948683  0.14418975    -0.53300
C138        C  0.41140729  0.41916656  0.12587074     0.09900
C139        C  0.40720930  0.41172199  0.09038819     0.20800
C140        C  0.35043787  0.39524056  0.10225389    -0.54000
C141        C  0.36945144  0.41507827  0.08396730     0.10000
C142        C  0.39564280  0.35440322  0.10447539    -0.53500
C143        C  0.41508601  0.37417747  0.08640230     0.10600
H144        H  0.39250507  0.40101751  0.16966955     0.15100
H145        H  0.42283164  0.42777124  0.07538873     0.00800
H146        H  0.32345084  0.39521466  0.10110653     0.15400
H147        H  0.39776322  0.32753693  0.10301897     0.15200
C148        C  0.12844070  0.37796543  0.12288085     0.87000
C149        C  0.10519670  0.40109496  0.14255286    -0.53300
C150        C  0.08366682  0.41911351  0.12469452     0.09900
C151        C  0.08750089  0.41211626  0.08909617     0.20800
C152        C  0.10491306  0.35611548  0.10247351    -0.54000
C153        C  0.08313303  0.37408854  0.08509149     0.10000
C154        C  0.14577721  0.40105961  0.09957581    -0.53500
C155        C  0.12451482  0.41874920  0.08167301     0.10600
H156        H  0.10566418  0.40289786  0.16802036     0.15100
H157        H  0.07012391  0.42672319  0.07450764     0.00800
H158        H  0.10585442  0.32908972  0.10135770     0.15400
H159        H  0.17259428  0.40345504  0.09750925     0.15200
N160        N  0.49956479  0.36332174  0.05387943    -0.36100
N161        N  0.44916857  0.35833650  0.00591040    -0.56700
N162        N  0.50059491  0.35757936  0.45545245    -0.36100
N163        N  0.04993073  0.35726591  0.00482870    -0.56700
C164        C  0.47254654  0.35465628  0.07078558     0.27500
C165        C  0.02658817  0.35348219  0.07011754     0.27500
C166        C  0.47355372  0.34689347  0.43940522     0.27400
C167        C  0.02745204  0.34732637  0.43895130     0.27400
C168        C  0.42887227  0.35843223  0.03116583     0.36100
C169        C  0.43020688  0.35476522  0.47924511     0.36100
C170        C  0.07025349  0.35778478  0.03001912     0.36100
C171        C  0.07137492  0.35570831  0.47807736     0.36100
C172        C  0.48240237  0.33820253  0.09738470    -0.21400
C173        C  0.01677311  0.33754695  0.09702958    -0.21400
C174        C  0.48324632  0.32862017  0.41303922    -0.21400
C175        C  0.01755335  0.32892783  0.41275698    -0.21400
C176        C  0.39625608  0.35438712  0.02203474    -0.22500
C177        C  0.39763966  0.35158429  0.48861816    -0.22500
C178        C  0.10303018  0.35602692  0.02064242    -0.22500
C179        C  0.10427580  0.35488858  0.48696120    -0.22500
C180        C  0.43938368  0.36127542  0.06245146    -0.17800
C181        C  0.05974747  0.35947688  0.06143877    -0.17800
C182        C  0.06046696  0.35521922  0.44675572    -0.17800
C183        C  0.44056911  0.35429979  0.44776557    -0.17800
H184        H  0.46646755  0.32744818  0.11497075     0.15100
H185        H  0.03276208  0.32646136  0.11435710     0.15100
H186        H  0.46724975  0.31651154  0.39584626     0.15100
H187        H  0.03342652  0.31708177  0.39527507     0.15100
H188        H  0.37511934  0.35058061  0.03720704     0.13400
H189        H  0.37660091  0.34622402  0.47360113     0.13400
H190        H  0.12446475  0.35326541  0.03562778     0.13400
H191        H  0.12550139  0.35177136  0.47161179     0.13400
H192        H  0.49965671  0.37716875  0.03349129     0.26600
H193        H  0.50070000  0.37321519  0.47531012     0.26600
C194        C  0.11275369  0.13185192  0.13021966     0.87000
C195        C  0.08779842  0.14928217  0.10864246    -0.53300
C196        C  0.07152438  0.12796766  0.08869013     0.09900
C197        C  0.08136805  0.09121171  0.09239145     0.20800
C198        C  0.09216368  0.10523743  0.14728829    -0.54000
C199        C  0.07570413  0.08381111  0.12743909     0.10000
C200        C  0.13597788  0.11215132  0.10761163    -0.53500
C201        C  0.11936775  0.09084723  0.08774136     0.10600
H202        H  0.08396046  0.17605148  0.10852762     0.15100
H203        H  0.06786779  0.07388524  0.07615637     0.00800
H204        H  0.08996454  0.10417644  0.17266317     0.15400
H205        H  0.16288623  0.11440200  0.10770968     0.15200
N206        N  0.44607095  0.50290280  0.13331737    -0.36100
N207        N  0.49759014  0.45258135  0.13874355    -0.56700
N208        N  0.04877932  0.50271524  0.13150081    -0.36100
N209        N  0.49179739  0.04461341  0.13775287    -0.56700
C210        C  0.42880041  0.47650373  0.14378264     0.27500
C211        C  0.42477685  0.01651812  0.14215719     0.27500
C212        C  0.06652502  0.47652100  0.14173058     0.27400
C213        C  0.06157503  0.02564169  0.14351785     0.27400
C214        C  0.47067705  0.43235039  0.13890611     0.36100
C215        C  0.02445876  0.43228629  0.13856443     0.36100
C216        C  0.46369534  0.06304724  0.13775499     0.36100
C217        C  0.01719998  0.06669645  0.13816664     0.36100
C218        C  0.40108233  0.48736421  0.16027969    -0.21400
C219        C  0.39754868  0.00462795  0.15827701    -0.21400
C220        C  0.09520427  0.48766092  0.15638673    -0.21400
C221        C  0.08929067  0.01730884  0.16082823    -0.21400
C222        C  0.48045553  0.39963325  0.14122732    -0.22500
C223        C  0.01464215  0.39959741  0.14106650    -0.22500
C224        C  0.47120769  0.09644573  0.14042613    -0.22500
C225        C  0.00525337  0.09877559  0.14069960    -0.22500
C226        C  0.43732357  0.44299419  0.13801430    -0.17800
C227        C  0.43123338  0.05019981  0.13661898    -0.17800
C228        C  0.05108635  0.05828813  0.13772501    -0.17800
C229        C  0.05782958  0.44287421  0.13716079    -0.17800
H230        H  0.38285316  0.47207929  0.17190680     0.15100
H231        H  0.37826181  0.01921911  0.16978936     0.15100
H232        H  0.11400197  0.47261539  0.16743470     0.15100
H233        H  0.10605668  0.03423145  0.17303996     0.15100
H234        H  0.46439868  0.37843421  0.14459281     0.13400
H235        H  0.03069420  0.37839214  0.14432734     0.13400
H236        H  0.45378742  0.11666586  0.14389568     0.13400
H237        H  0.01974805  0.12116031  0.14444618     0.13400
H238        H  0.46713873  0.50195755  0.11906577     0.26600
H239        H  0.02693710  0.50159217  0.11839226     0.26600
N240        N  0.13493883  0.45014965  0.00158841    -0.36100
N241        N  0.13930479  0.00737195  0.05316324    -0.56700
N242        N  0.13150348  0.05942349  0.00835862    -0.36100
N243        N  0.13537170  0.00741944  0.45765048    -0.56700
C244        C  0.14360829  0.43362696  0.02761450     0.27500
C245        C  0.14843098  0.42912703  0.47668435     0.27500
C246        C  0.14140757  0.07665503  0.03428120     0.27400
C247        C  0.14340207  0.07685802  0.47907233     0.27400
C248        C  0.13817147  0.47727605  0.06807401     0.36100
C249        C  0.13685294  0.03346388  0.07357356     0.36100
C250        C  0.14092656  0.46874537  0.43450737     0.36100
C251        C  0.13508470  0.03365018  0.43848517     0.36100
C252        C  0.16132844  0.40526163  0.01934437    -0.21400
C253        C  0.16564116  0.40158858  0.48679719    -0.21400
C254        C  0.15715543  0.10572074  0.02583569    -0.21400
C255        C  0.16074688  0.10552804  0.48720317    -0.21400
C256        C  0.14167168  0.48810115  0.09879911    -0.22500
C257        C  0.13695098  0.02278608  0.10406214    -0.22500
C258        C  0.14207377  0.47703775  0.40333111    -0.22500
C259        C  0.13752843  0.02321413  0.40755328    -0.22500
C260        C  0.13568326  0.44375077  0.05848168    -0.17800
C261        C  0.14157048  0.43604179  0.44526071    -0.17800
C262        C  0.13442132  0.06704359  0.44842422    -0.17800
C263        C  0.13536292  0.06694519  0.06518554    -0.17800
H264        H  0.17240789  0.38757592  0.03502967     0.15100
H265        H  0.17722752  0.38237428  0.47230437     0.15100
H266        H  0.16806089  0.12437032  0.04142278     0.15100
H267        H  0.17077506  0.12379254  0.47146508     0.15100
H268        H  0.14500734  0.47272911  0.11903760     0.13400
H269        H  0.13817670  0.03827370  0.12509303     0.13400
H270        H  0.14590416  0.46020553  0.38351542     0.13400
H271        H  0.14120696  0.03878572  0.38748899     0.13400
H272        H  0.12030205  0.47152592  0.00082445     0.26600
H273        H  0.11767515  0.03745900  0.00771651     0.26600
N274        N  0.48921087  0.12983459  0.05459766    -0.36100
N275        N  0.43966904  0.13407115  0.00582249    -0.56700
N276        N  0.49416881  0.14277606  0.45461207    -0.36100
N277        N  0.03994794  0.14258089  0.00727866    -0.56700
C278        C  0.46126139  0.13739172  0.07073295     0.27500
C279        C  0.01465029  0.14267734  0.07148820     0.27500
C280        C  0.46686618  0.15136144  0.43817733     0.27400
C281        C  0.02088627  0.15254438  0.43795149     0.27400
C282        C  0.41900554  0.13099442  0.03057264     0.36100
C283        C  0.42367901  0.14611173  0.47837690     0.36100
C284        C  0.05957435  0.14174336  0.03297508     0.36100
C285        C  0.06511577  0.14765098  0.47734489     0.36100
C286        C  0.46876532  0.15624776  0.09733300    -0.21400
C287        C  0.00287490  0.15951988  0.09785726    -0.21400
C288        C  0.47618574  0.16771281  0.41134157    -0.21400
C289        C  0.01056256  0.16845403  0.41120966    -0.21400
C290        C  0.38636475  0.13384242  0.02140398    -0.22500
C291        C  0.39112427  0.14915905  0.48807604    -0.22500
C292        C  0.09229837  0.14675345  0.02487939    -0.22500
C293        C  0.09798065  0.14982110  0.48631004    -0.22500
C294        C  0.42931188  0.12765626  0.06163679    -0.17800
C295        C  0.04815600  0.13867687  0.06389802    -0.17800
C296        C  0.05420130  0.14654857  0.44601873    -0.17800
C297        C  0.43389873  0.14434160  0.44681117    -0.17800
H298        H  0.45150170  0.16678192  0.11433236     0.15100
H299        H  0.01735060  0.17289665  0.11544445     0.15100
H300        H  0.45988600  0.17810909  0.39388416     0.15100
H301        H  0.02620151  0.17953288  0.39356954     0.15100
H302        H  0.36489017  0.13570582  0.03658683     0.13400
H303        H  0.36972656  0.15312451  0.47330834     0.13400
H304        H  0.11285609  0.15064475  0.04083822     0.13400
H305        H  0.11911869  0.15334293  0.47107094     0.13400
H306        H  0.49100940  0.11493081  0.03427734     0.26600
H307        H  0.49461554  0.12883454  0.47492370     0.26600
C308        C  0.36291379  0.11665255  0.12570236     0.84000
C309        C  0.38675795  0.13526313  0.10398693    -0.53300
C310        C  0.40551080  0.11501351  0.08526622     0.09900
C311        C  0.39865387  0.07761786  0.08970694     0.20800
C312        C  0.34194236  0.09396506  0.10329448    -0.54000
C313        C  0.36088766  0.07334469  0.08431795     0.10000
C314        C  0.38531418  0.09259072  0.14395916    -0.53500
C315        C  0.40400660  0.07202727  0.12509427     0.10600
H316        H  0.38850002  0.16223046  0.10317047     0.15100
H317        H  0.41418180  0.06115155  0.07433149     0.00800
H318        H  0.31495886  0.09401495  0.10274998     0.15400
H319        H  0.38732966  0.09287749  0.16938830     0.15200
N320        N  0.35078657  0.50031247  0.05269968    -0.36100
N321        N  0.35693826  0.44646606  0.00505046    -0.56700
N322        N  0.36197628  0.49304606  0.45334856    -0.36100
N323        N  0.35588099  0.04062598  0.00455972    -0.56700
C324        C  0.35381680  0.47372811  0.07148017     0.27500
C325        C  0.34937615  0.01370855  0.06967334     0.27500
C326        C  0.35660339  0.46524694  0.43548764     0.27400
C327        C  0.35957381  0.02499268  0.43955091     0.27400
C328        C  0.34843098  0.42924944  0.03063535     0.36100
C329        C  0.35031602  0.42427630  0.47740763     0.36100
C330        C  0.34311569  0.05708669  0.02982918     0.36100
C331        C  0.35153098  0.06898218  0.48039551     0.36100
C332        C  0.35454680  0.48473442  0.10234897    -0.21400
C333        C  0.35090605  0.00295783  0.10014441    -0.21400
C334        C  0.34961069  0.47413492  0.40509360    -0.21400
C335        C  0.35322262  0.01449177  0.40905871    -0.21400
C336        C  0.33417196  0.39918952  0.02168850    -0.22500
C337        C  0.33565931  0.39529737  0.48748143    -0.22500
C338        C  0.32692728  0.08551648  0.02051809    -0.22500
C339        C  0.33523385  0.09824975  0.48858033    -0.22500
C340        C  0.35538707  0.43979674  0.06169367    -0.17800
C341        C  0.34788666  0.04762679  0.06120038    -0.17800
C342        C  0.36010684  0.05862684  0.44968917    -0.17800
C343        C  0.35666387  0.43208268  0.44585820    -0.17800
H344        H  0.35350165  0.46927159  0.12272193     0.15100
H345        H  0.34832003  0.01834028  0.12110858     0.15100
H346        H  0.34244085  0.45759410  0.38587669     0.15100
H347        H  0.34697791  0.03004817  0.38953318     0.15100
H348        H  0.32425502  0.38039997  0.03693496     0.13400
H349        H  0.32581695  0.37516711  0.47294361     0.13400
H350        H  0.31393015  0.10341453  0.03541904     0.13400
H351        H  0.32520553  0.11649882  0.47286397     0.13400
H352        H  0.34835618  0.49938857  0.02859902     0.26600
H353        H  0.36874813  0.49408315  0.47672345     0.26600
C354        C  0.35714774  0.33979792  0.35942165    -0.16000
C355        C  0.33620665  0.35043311  0.33724651    -0.31100
H356        H  0.36290662  0.31339462  0.36026573     0.13100
H357        H  0.32969435  0.37667802  0.33676740     0.13600
C358        C  0.33942056  0.14267646  0.36662178    -0.16000
C359        C  0.34774926  0.16738604  0.34760191    -0.31100
H360        H  0.31339403  0.13584161  0.36890326     0.13100
H361        H  0.37359949  0.17502977  0.34590204     0.13600
C362        C  0.16961752  0.35780948  0.34052429    -0.16000
C363        C  0.14660094  0.34551552  0.35997818    -0.31100
H364        H  0.17608064  0.38407851  0.34178055     0.13100
H365        H  0.14121201  0.31897284  0.35918065     0.13600
C366        C  0.34810844  0.32113255  0.15002329    -0.16000
C367        C  0.34725262  0.35436495  0.14625911    -0.31100
H368        H  0.36719277  0.30591549  0.13901218     0.13100
H369        H  0.32876179  0.36881400  0.15927718     0.13600
C370        C  0.14725323  0.14933460  0.36273657    -0.16000
C371        C  0.14736235  0.18224853  0.35801718    -0.31100
H372        H  0.16529315  0.13383380  0.35021375     0.13100
H373        H  0.12877755  0.19842004  0.36859293     0.13600
C374        C  0.14539205  0.33300708  0.15961339    -0.16000
C375        C  0.15365942  0.35866420  0.14160162    -0.31100
H376        H  0.11953177  0.32537689  0.16122578     0.13100
H377        H  0.17974229  0.36528413  0.13940494     0.13600
C378        C  0.34416139  0.14117705  0.14673562    -0.16000
C379        C  0.32233151  0.13198801  0.16863150    -0.31100
H380        H  0.34988735  0.16754096  0.14494635     0.13100
H381        H  0.31531346  0.10595683  0.17028498     0.13600
C382        C  0.13037231  0.15593959  0.15223056    -0.16000
C383        C  0.15409727  0.14582403  0.17192102    -0.31100
H384        H  0.12331718  0.18205446  0.15215516     0.13100
H385        H  0.16175810  0.11986766  0.17144601     0.13600
C386        C  0.17622980  0.17151508  0.69142917     0.42900
N387        N  0.20633178  0.18791101  0.73007460     0.01800
C388        C  0.21211080  0.34540611  0.79853144    -0.06100
H389        H  0.22245562  0.34749444  0.67882797     0.07300
C390        C  0.33516333  0.27789484  0.69365510    -0.06400
Co391      Co  0.18751616  0.25580035  0.75351291     0.74200
N392        N  0.21519647  0.30714645  0.71087894    -0.25600
Co393      Co  0.25277660  0.31115674  0.74457953     0.74100
C394        C  0.32754759  0.30741189  0.67565252     0.43000
N395        N  0.30414085  0.20319806  0.72644707     0.01400
N396        N  0.29034937  0.30150824  0.71147125     0.01500
N397        N  0.17048856  0.30809856  0.80476294    -0.46400
H398        H  0.14600957  0.22037479  0.69235667     0.07300
N399        N  0.19086974  0.28543296  0.71422621     0.01800
N400        N  0.28925661  0.31397866  0.77901347     0.01600
C401        C  0.31920882  0.33083887  0.81761754     0.43200
N402        N  0.27964970  0.18187264  0.73100091    -0.25000
C403        C  0.15816834  0.22442762  0.81232913    -0.06000
N404        N  0.20126223  0.16243898  0.71039475    -0.46100
N405        N  0.29401779  0.33945485  0.79872376    -0.46400
C406        C  0.16478937  0.19559104  0.83117167     0.42900
N407        N  0.19128413  0.29845894  0.78215610     0.01800
N408        N  0.28064261  0.19489566  0.79818747    -0.25100
N409        N  0.18583108  0.21296048  0.72533124    -0.25600
N410        N  0.30560826  0.21581363  0.79420527     0.01500
H411        H  0.27414994  0.15289618  0.82832982     0.07300
H412        H  0.35026008  0.28240264  0.81645747     0.07400
N413        N  0.21591224  0.31971895  0.77821543    -0.25600
N414        N  0.31117877  0.27652559  0.71554828    -0.25200
N415        N  0.20463375  0.20130329  0.79777249     0.01800
C416        C  0.17623457  0.31354493  0.67437844     0.43200
C417        C  0.28344726  0.15578849  0.71108760    -0.06500
N418        N  0.31018539  0.28917342  0.78345871    -0.25200
H419        H  0.35685056  0.26198849  0.69234869     0.07400
N420        N  0.16716153  0.28846711  0.69297394    -0.46400
H421        H  0.26736980  0.13422487  0.70942011     0.07400
C422        C  0.32165152  0.18496849  0.83196891     0.43100
C423        C  0.16571474  0.20492834  0.70130235    -0.06000
Co424      Co  0.24272112  0.19091370  0.76474131     0.73800
N425        N  0.32482130  0.19314073  0.70388559    -0.46200
C426        C  0.18234594  0.33740616  0.81624478     0.43300
N427        N  0.19378178  0.18199276  0.82061362    -0.46100
Co428      Co  0.30836388  0.24612185  0.75488203     0.73900
C429        C  0.33030469  0.29754576  0.80751606    -0.06500
C430        C  0.20812048  0.32626696  0.68624403    -0.06000
N431        N  0.18381035  0.22595430  0.79239082    -0.25600
N432        N  0.29959291  0.32101035  0.68821075    -0.46300
H433        H  0.22825145  0.36687985  0.80067452     0.07300
C434        C  0.28834051  0.17454927  0.82176822    -0.06400
Cl435      Cl  0.24789817  0.25096136  0.75449195    -0.49500
C436        C  0.31307144  0.16353197  0.69298517     0.43100
H437        H  0.13611942  0.23982382  0.81167387     0.07300
N438        N  0.33064758  0.21037831  0.81361196    -0.46200
C439        C  0.37287830  0.36643594  0.88514804     0.87000
C440        C  0.39735211  0.34838974  0.90666960    -0.53300
C441        C  0.41557762  0.36933131  0.92529180     0.09900
C442        C  0.40753348  0.40653538  0.92079770     0.20800
C443        C  0.35133994  0.38843555  0.90756681    -0.54000
C444        C  0.36972781  0.40963660  0.92628003     0.10000
C445        C  0.39440275  0.39109028  0.86674761    -0.53500
C446        C  0.41231569  0.41231588  0.88541619     0.10600
H447        H  0.39978104  0.32147917  0.90746959     0.15100
H448        H  0.42256297  0.42359514  0.93602664     0.00800
H449        H  0.32435749  0.38780936  0.90804990     0.15400
H450        H  0.39596834  0.39119012  0.84128772     0.15200
C451        C  0.36275800  0.12076991  0.88696501     0.87000
C452        C  0.38670427  0.09953267  0.86620297    -0.53300
C453        C  0.40895415  0.08135545  0.88306934     0.09900
C454        C  0.40503323  0.08616526  0.91887539     0.20800
C455        C  0.34628977  0.09574232  0.90918332    -0.54000
C456        C  0.36834735  0.07770294  0.92610485     0.10000
C457        C  0.38564450  0.14225364  0.90835020    -0.53500
C458        C  0.40815112  0.12407711  0.92469839     0.10600
H459        H  0.38638486  0.09933835  0.84071131     0.15100
H460        H  0.42305009  0.07140718  0.93263103     0.00800
H461        H  0.31958064  0.09232944  0.91113738     0.15400
H462        H  0.38369231  0.16915055  0.91090105     0.15200
C463        C  0.12433803  0.36953419  0.88240470     0.87000
C464        C  0.14546445  0.39221797  0.90446040    -0.53300
C465        C  0.12678600  0.41261651  0.92361994     0.09900
C466        C  0.08898222  0.40813690  0.91900202     0.20800
C467        C  0.10100287  0.35044649  0.90441997    -0.54000
C468        C  0.08247385  0.37066603  0.92365090     0.10000
C469        C  0.10146769  0.39340409  0.86457857    -0.53500
C470        C  0.08304455  0.41376167  0.88371710     0.10600
H471        H  0.17245755  0.39273357  0.90429648     0.15100
H472        H  0.07373804  0.42462793  0.93460936     0.00800
H473        H  0.09958608  0.32346022  0.90508468     0.15400
H474        H  0.09946404  0.39362197  0.83915337     0.15200
C475        C  0.12271433  0.13632016  0.89002038     0.87000
C476        C  0.10195450  0.11218889  0.86906764    -0.53300
C477        C  0.08083725  0.09241147  0.88552445     0.09900
C478        C  0.08290434  0.09837371  0.92143184     0.20800
C479        C  0.09673491  0.15596677  0.91014296    -0.54000
C480        C  0.07564274  0.13574166  0.92652862     0.10000
C481        C  0.14059267  0.11407912  0.91349577    -0.53500
C482        C  0.11996954  0.09453990  0.93016557     0.10600
H483        H  0.10349323  0.11124387  0.84360941     0.15100
H484        H  0.06616630  0.08191909  0.93493171     0.00800
H485        H  0.09591993  0.18294993  0.91208050     0.15400
H486        H  0.16742608  0.11328316  0.91636986     0.15200
N487        N  0.44559133  0.49671715  0.87289892    -0.36100
N488        N  0.49712829  0.44625225  0.87135932    -0.56700
N489        N  0.04794029  0.49725175  0.87282175    -0.36100
N490        N  0.49711750  0.05464192  0.86810990    -0.56700
C491        C  0.42748634  0.46899625  0.86670919     0.27500
C492        C  0.42958841  0.02623113  0.86309755     0.27500
C493        C  0.06575785  0.46980776  0.86489530     0.27400
C494        C  0.06751334  0.03563013  0.86380257     0.27400
C495        C  0.47050004  0.42583783  0.87147039     0.36100
C496        C  0.02404205  0.42611698  0.87118043     0.36100
C497        C  0.46888703  0.07300348  0.86904617     0.36100
C498        C  0.02263498  0.07659949  0.86997584     0.36100
C499        C  0.39750106  0.47761446  0.85330499    -0.21400
C500        C  0.40116432  0.01413973  0.84862459    -0.21400
C501        C  0.09401410  0.47873237  0.84863185    -0.21400
C502        C  0.09671632  0.02758269  0.84824600    -0.21400
C503        C  0.48042875  0.39301784  0.86900721    -0.22500
C504        C  0.01456148  0.39320116  0.86877996    -0.22500
C505        C  0.47653946  0.10645547  0.86903340    -0.22500
C506        C  0.01069239  0.10872626  0.86964566    -0.22500
C507        C  0.43725935  0.43627869  0.87339404    -0.17800
C508        C  0.43622808  0.06010064  0.86946053    -0.17800
C509        C  0.05665053  0.06811319  0.87109083    -0.17800
C510        C  0.05710875  0.43705536  0.87230935    -0.17800
H511        H  0.37816704  0.46085070  0.84505107     0.15100
H512        H  0.38101007  0.02859267  0.83905373     0.15100
H513        H  0.11258825  0.46219720  0.83851715     0.15100
H514        H  0.11448406  0.04467342  0.83833896     0.15100
H515        H  0.46456028  0.37147629  0.86596492     0.13400
H516        H  0.03070965  0.37192413  0.86540988     0.13400
H517        H  0.45913032  0.12678575  0.86707779     0.13400
H518        H  0.02535846  0.13117509  0.86813298     0.13400
H519        H  0.46831668  0.49775673  0.88448545     0.26600
H520        H  0.02639669  0.49807655  0.88640136     0.26600
C521        C  0.37234545  0.37445177  0.62464852     0.87000
C522        C  0.39413989  0.40044349  0.64242211    -0.53300
C523        C  0.41352310  0.41927250  0.62332098     0.09900
C524        C  0.40911924  0.41046872  0.58812640     0.20800
C525        C  0.35233292  0.39481651  0.60088897    -0.54000
C526        C  0.37138781  0.41374181  0.58175935     0.10000
C527        C  0.39736988  0.35382099  0.60422124    -0.53500
C528        C  0.41682718  0.37282550  0.58525480     0.10600
H529        H  0.39487485  0.40298428  0.66784835     0.15100
H530        H  0.42471020  0.42590502  0.57253166     0.00800
H531        H  0.32533789  0.39512650  0.60003608     0.15400
H532        H  0.39923362  0.32691102  0.60375109     0.15200
C533        C  0.12941035  0.37775551  0.62331560     0.87000
C534        C  0.10633728  0.40219272  0.64143575    -0.53300
C535        C  0.08589431  0.41999544  0.62256946     0.09900
C536        C  0.09052412  0.41183304  0.58730275     0.20800
C537        C  0.10563486  0.35584072  0.60276136    -0.54000
C538        C  0.08509283  0.37385948  0.58404790     0.10000
C539        C  0.14815445  0.39941727  0.59976802    -0.53500
C540        C  0.12792821  0.41732527  0.58095097     0.10600
H541        H  0.10590584  0.40480994  0.66686765     0.15100
H542        H  0.07404332  0.42653265  0.57190966     0.00800
H543        H  0.10538362  0.32886563  0.60195654     0.15400
H544        H  0.17508736  0.40125228  0.59874797     0.15200
N545        N  0.50120217  0.36187917  0.55258653    -0.36100
N546        N  0.45054658  0.35650829  0.50446238    -0.56700
N547        N  0.49944136  0.36106143  0.95706504    -0.36100
N548        N  0.05136846  0.35567742  0.50360394    -0.56700
C549        C  0.47424386  0.35280377  0.56942390     0.27500
C550        C  0.02840618  0.35254621  0.56887535     0.27500
C551        C  0.47242011  0.35099236  0.94071311     0.27400
C552        C  0.02626350  0.35126271  0.94016896     0.27400
C553        C  0.43036934  0.35697535  0.52985812     0.36100
C554        C  0.42894770  0.35684159  0.98067246     0.36100
C555        C  0.07185823  0.35729980  0.52872437     0.36100
C556        C  0.07011056  0.35770303  0.97945580     0.36100
C557        C  0.48433205  0.33636919  0.59597109    -0.21400
C558        C  0.01876003  0.33629319  0.59567713    -0.21400
C559        C  0.48201330  0.33370603  0.91377130    -0.21400
C560        C  0.01632736  0.33388399  0.91343226    -0.21400
C561        C  0.39771925  0.35304313  0.52083289    -0.22500
C562        C  0.39632840  0.35330652  0.98983986    -0.22500
C563        C  0.10458285  0.35584817  0.51918909    -0.22500
C564        C  0.10292558  0.35597419  0.98842966    -0.22500
C565        C  0.44094861  0.35932799  0.56123118    -0.17800
C566        C  0.06153374  0.35919641  0.56025358    -0.17800
C567        C  0.05928775  0.35845592  0.94819121    -0.17800
C568        C  0.43948183  0.35785784  0.94936131    -0.17800
H569        H  0.46852796  0.32552754  0.61361314     0.15100
H570        H  0.03486848  0.32545944  0.61305012     0.15100
H571        H  0.46596519  0.32201894  0.89637469     0.15100
H572        H  0.03215875  0.32237055  0.89572680     0.15100
H573        H  0.37669755  0.34916937  0.53612791     0.13400
H574        H  0.37529673  0.34841364  0.97468155     0.13400
H575        H  0.12610702  0.35363772  0.53413820     0.13400
H576        H  0.12419203  0.35294615  0.97311989     0.13400
H577        H  0.50110979  0.37582324  0.53224636     0.26600
H578        H  0.49955209  0.37592473  0.97742691     0.26600
C579        C  0.12100726  0.13727345  0.62467140     0.87000
C580        C  0.09638305  0.15522307  0.60314925    -0.53300
C581        C  0.07926588  0.13423987  0.58353139     0.09900
C582        C  0.08843867  0.09716683  0.58735340     0.20800
C583        C  0.09992284  0.11139807  0.64203944    -0.54000
C584        C  0.08302767  0.09014115  0.62250262     0.10000
C585        C  0.14366208  0.11678326  0.60224581    -0.53500
C586        C  0.12647566  0.09562036  0.58271962     0.10600
H587        H  0.09313293  0.18207270  0.60305470     0.15100
H588        H  0.07441838  0.08000147  0.57137540     0.00800
H589        H  0.09777955  0.11062904  0.66743811     0.15400
H590        H  0.17063193  0.11808640  0.60251969     0.15200
N591        N  0.44846585  0.50311643  0.62965788    -0.36100
N592        N  0.49970317  0.45324035  0.63494259    -0.56700
N593        N  0.05131332  0.50360960  0.62947109    -0.36100
N594        N  0.49829905  0.05460146  0.63447801    -0.56700
C595        C  0.43135920  0.47681935  0.64056706     0.27500
C596        C  0.43028874  0.03028005  0.64178029     0.27500
C597        C  0.06855507  0.47722610  0.63984134     0.27400
C598        C  0.06776022  0.03302943  0.64093367     0.27400
C599        C  0.47294278  0.43283182  0.63491855     0.36100
C600        C  0.02664965  0.43309949  0.63479899     0.36100
C601        C  0.47119305  0.07443243  0.63503861     0.36100
C602        C  0.02462945  0.07541984  0.63468112     0.36100
C603        C  0.40432108  0.48778177  0.65800191    -0.21400
C604        C  0.40329130  0.02088850  0.65964455    -0.21400
C605        C  0.09660430  0.48799255  0.65583926    -0.21400
C606        C  0.09618414  0.02504534  0.65736899    -0.21400
C607        C  0.48281290  0.40015598  0.63707793    -0.22500
C608        C  0.01701480  0.40033947  0.63705547    -0.22500
C609        C  0.48026820  0.10740703  0.63798005    -0.22500
C610        C  0.01430305  0.10804754  0.63771962    -0.22500
C611        C  0.43963028  0.44334118  0.63454595    -0.17800
C612        C  0.43824364  0.06322295  0.63434073    -0.17800
C613        C  0.05801104  0.06551668  0.63342568    -0.17800
C614        C  0.05990791  0.44380774  0.63411492    -0.17800
H615        H  0.38639253  0.47258355  0.67011801     0.15100
H616        H  0.38517473  0.03712229  0.67090915     0.15100
H617        H  0.11493368  0.47267635  0.66723870     0.15100
H618        H  0.11414848  0.04220261  0.66753636     0.15100
H619        H  0.46684071  0.37893226  0.64058074     0.13400
H620        H  0.03316016  0.37925806  0.64053337     0.13400
H621        H  0.46388981  0.12839116  0.64199431     0.13400
H622        H  0.02988348  0.12967897  0.64149025     0.13400
H623        H  0.46906898  0.50221163  0.61477218     0.26600
H624        H  0.03005870  0.50272725  0.61549408     0.26600
N625        N  0.13820643  0.44786643  0.50156898    -0.36100
N626        N  0.14307145  0.01001228  0.55240327    -0.56700
N627        N  0.13569886  0.05992978  0.50510227    -0.36100
N628        N  0.13895061  0.00938230  0.95850431    -0.56700
C629        C  0.14786196  0.43189985  0.52751432     0.27500
C630        C  0.14596693  0.43181811  0.97672101     0.27500
C631        C  0.14705331  0.07813101  0.52983822     0.27400
C632        C  0.13980825  0.07780119  0.98342531     0.27400
C633        C  0.14138848  0.47600939  0.56763224     0.36100
C634        C  0.14350340  0.03729179  0.57149202     0.36100
C635        C  0.14112356  0.47214767  0.93456986     0.36100
C636        C  0.13611456  0.03649093  0.94061350     0.36100
C637        C  0.16527421  0.40334752  0.51920080    -0.21400
C638        C  0.16275892  0.40407918  0.98694951    -0.21400
C639        C  0.16298578  0.10637668  0.51956514    -0.21400
C640        C  0.15618163  0.10644507  0.99341645    -0.21400
C641        C  0.14324335  0.48729140  0.59834586    -0.22500
C642        C  0.14553886  0.02828997  0.60246248    -0.22500
C643        C  0.14330062  0.48070174  0.90349732    -0.22500
C644        C  0.13919892  0.02794361  0.90924615    -0.22500
C645        C  0.14024482  0.44224763  0.55830355    -0.17800
C646        C  0.14034732  0.43921837  0.94512291    -0.17800
C647        C  0.13227385  0.06912748  0.95212751    -0.17800
C648        C  0.14199216  0.07025588  0.56134852    -0.17800
H649        H  0.17656163  0.38576650  0.53486516     0.15100
H650        H  0.17492356  0.38517504  0.97252381     0.15100
H651        H  0.17482187  0.12552954  0.53393266     0.15100
H652        H  0.16643442  0.12568864  0.97887795     0.15100
H653        H  0.14619816  0.47219153  0.61881424     0.13400
H654        H  0.14867115  0.04482274  0.62261650     0.13400
H655        H  0.14694902  0.46389448  0.88362641     0.13400
H656        H  0.14119365  0.04480160  0.88994631     0.13400
H657        H  0.12326814  0.46903632  0.50104192     0.26600
H658        H  0.12127755  0.03842962  0.50610123     0.26600
N659        N  0.49527605  0.14217578  0.55132460    -0.36100
N660        N  0.44421292  0.14552758  0.50344838    -0.56700
N661        N  0.49094831  0.13871985  0.95798256    -0.36100
N662        N  0.04514818  0.14738310  0.50282984    -0.56700
C663        C  0.46832938  0.15127418  0.56834966     0.27500
C664        C  0.02221245  0.15219924  0.56793399     0.27500
C665        C  0.46344790  0.14706850  0.94172195     0.27400
C666        C  0.01742918  0.15109657  0.94242357     0.27400
C667        C  0.42430750  0.14550095  0.52902588     0.36100
C668        C  0.41975822  0.13631911  0.98053734     0.36100
C669        C  0.06565309  0.14688272  0.52792269     0.36100
C670        C  0.06073114  0.14580733  0.98257358     0.36100
C671        C  0.47805138  0.16823765  0.59540394    -0.21400
C672        C  0.01235477  0.16884943  0.59513560    -0.21400
C673        C  0.47230939  0.16577019  0.91617098    -0.21400
C674        C  0.00663861  0.16832600  0.91662803    -0.21400
C675        C  0.39152023  0.14872978  0.52033140    -0.22500
C676        C  0.38681821  0.13714996  0.98946807    -0.22500
C677        C  0.09831210  0.14934947  0.51851915    -0.22500
C678        C  0.09306423  0.14925480  0.99279200    -0.22500
C679        C  0.43536832  0.14373835  0.56022219    -0.17800
C680        C  0.05525714  0.14558289  0.55933340    -0.17800
C681        C  0.05095384  0.14687117  0.95092120    -0.17800
C682        C  0.43069334  0.13796883  0.94940989    -0.17800
H683        H  0.46208440  0.17911410  0.61334423     0.15100
H684        H  0.02820487  0.18027785  0.61284124     0.15100
H685        H  0.45572798  0.17667997  0.89924263     0.15100
H686        H  0.02191152  0.18158102  0.90010147     0.15100
H687        H  0.37051414  0.15237918  0.53586424     0.13400
H688        H  0.36564822  0.14161242  0.97453792     0.13400
H689        H  0.11968918  0.15266397  0.53359044     0.13400
H690        H  0.11445980  0.15513823  0.97858713     0.13400
H691        H  0.49532260  0.12769327  0.53072437     0.26600
H692        H  0.49173898  0.12348030  0.97742759     0.26600
C693        C  0.37081590  0.13116533  0.62630615     0.84000
C694        C  0.39408808  0.15065442  0.60452507    -0.53300
C695        C  0.41231774  0.13087279  0.58466264     0.09900
C696        C  0.40572093  0.09326638  0.58862439     0.20800
C697        C  0.34941916  0.10908641  0.60391550    -0.54000
C698        C  0.36786394  0.08898987  0.58422621     0.10000
C699        C  0.39371051  0.10668565  0.64344176    -0.53500
C700        C  0.41188943  0.08663418  0.62373321     0.10600
H701        H  0.39564288  0.17765898  0.60444208     0.15100
H702        H  0.42077532  0.07710170  0.57255633     0.00800
H703        H  0.32242961  0.10866504  0.60429762     0.15400
H704        H  0.39598817  0.10593993  0.66882406     0.15200
N705        N  0.35410541  0.49866125  0.54950827    -0.36100
N706        N  0.35826579  0.44404058  0.50231538    -0.56700
N707        N  0.36048533  0.49645168  0.95685291    -0.36100
N708        N  0.35891195  0.05195189  0.50629413    -0.56700
C709        C  0.35689598  0.47229876  0.56856493     0.27500
C710        C  0.35487128  0.02921709  0.57238329     0.27500
C711        C  0.35549685  0.46886641  0.93861990     0.27400
C712        C  0.35952331  0.01747375  0.93682851     0.27400
C713        C  0.35005302  0.42729287  0.52829183     0.36100
C714        C  0.34933292  0.42711749  0.97980494     0.36100
C715        C  0.34845373  0.07067175  0.53105010     0.36100
C716        C  0.34880324  0.05895903  0.97922082     0.36100
C717        C  0.35842140  0.48369719  0.59931139    -0.21400
C718        C  0.35584475  0.01988040  0.60327991    -0.21400
C719        C  0.34839675  0.47811104  0.90834783    -0.21400
C720        C  0.35449797  0.00802878  0.90582853    -0.21400
C721        C  0.33559123  0.39715860  0.51991695    -0.22500
C722        C  0.33463137  0.39789541  0.98925273    -0.22500
C723        C  0.33342889  0.09939611  0.52093990    -0.22500
C724        C  0.33036804  0.08662115  0.98827846    -0.22500
C725        C  0.35750702  0.43823242  0.55918509    -0.17800
C726        C  0.35408815  0.06260966  0.56250947    -0.17800
C727        C  0.35871597  0.05076715  0.94815069    -0.17800
C728        C  0.35606817  0.43555986  0.94852725    -0.17800
H729        H  0.35747285  0.46856399  0.61991382     0.15100
H730        H  0.35342177  0.03625349  0.62360630     0.15100
H731        H  0.34140987  0.46175949  0.88893309     0.15100
H732        H  0.34832761  0.02418423  0.88672456     0.15100
H733        H  0.32586589  0.37863769  0.53555378     0.13400
H734        H  0.32493948  0.37801832  0.97431633     0.13400
H735        H  0.32206804  0.11879493  0.53537445     0.13400
H736        H  0.32002495  0.10529699  0.97319768     0.13400
H737        H  0.35116059  0.49751310  0.52547131     0.26600
H738        H  0.36734956  0.49716653  0.98025606     0.26600
C739        C  0.35423051  0.34254267  0.86379774    -0.16000
C740        C  0.33331924  0.35334814  0.84183383    -0.31100
H741        H  0.35965120  0.31608523  0.86499016     0.13100
H742        H  0.32719110  0.37967147  0.84100868     0.13600
C743        C  0.33735128  0.14060856  0.86881240    -0.16000
C744        C  0.34599575  0.16619356  0.85072137    -0.31100
H745        H  0.31123802  0.13407406  0.87093028     0.13100
H746        H  0.37198075  0.17344416  0.84931726     0.13600
C747        C  0.16591444  0.35888678  0.84000775    -0.16000
C748        C  0.14388802  0.34683093  0.86050968    -0.31100
H749        H  0.17184158  0.38529325  0.84053211     0.13100
H750        H  0.13897793  0.32020165  0.86060955     0.13600
C751        C  0.34994126  0.32310016  0.65246920    -0.16000
C752        C  0.34912530  0.35600147  0.64677230    -0.31100
H753        H  0.36873136  0.30727348  0.64174279     0.13100
H754        H  0.33099689  0.37127588  0.65941203     0.13600
C755        C  0.14792350  0.15656086  0.87200427    -0.16000
C756        C  0.13950784  0.17867389  0.85043116    -0.31100
H757        H  0.17424057  0.15214052  0.87606454     0.13100
H758        H  0.11344051  0.18452667  0.84676818     0.13600
C759        C  0.15341823  0.32802019  0.65128612    -0.16000
C760        C  0.15362044  0.36064442  0.64503649    -0.31100
H761        H  0.13437468  0.31172885  0.64168748     0.13100
H762        H  0.17151569  0.37664006  0.65714779     0.13600
C763        C  0.35158056  0.15373540  0.64870382    -0.16000
C764        C  0.32928284  0.14186525  0.66909035    -0.31100
H765        H  0.35687709  0.18029867  0.64893447     0.13100
H766        H  0.32291440  0.11556638  0.66831723     0.13600
C767        C  0.13913312  0.16069184  0.64670830    -0.16000
C768        C  0.16129909  0.14946379  0.66740474    -0.31100
H769        H  0.13305605  0.18704479  0.64643633     0.13100
H770        H  0.16797747  0.12323629  0.66718474     0.13600
C771        C  0.17892354  0.66792069  0.18615670     0.42900
N772        N  0.20881688  0.68597692  0.22437639     0.01800
C773        C  0.19891761  0.83625382  0.30504198    -0.06100
H774        H  0.21352027  0.85235836  0.18665149     0.07300
C775        C  0.32846763  0.79074775  0.19308949    -0.06400
Co776      Co  0.18477367  0.75076708  0.25052760     0.74200
N777        N  0.20872735  0.80798278  0.21392228    -0.25600
Co778      Co  0.24532881  0.81176579  0.24880343     0.74100
C779        C  0.31682059  0.82115374  0.17800499     0.43000
N780        N  0.30471761  0.70883133  0.22129068     0.01400
N781        N  0.28302799  0.80840491  0.21508027     0.01500
N782        N  0.15955412  0.79596151  0.30235243    -0.46400
H783        H  0.14549809  0.71464723  0.18832808     0.07300
N784        N  0.18615491  0.78412303  0.21424162     0.01800
N785        N  0.28223960  0.81436852  0.28338818     0.01600
C786        C  0.31448171  0.83172188  0.32053043     0.43200
N787        N  0.28155809  0.68598917  0.22554654    -0.25000
C788        C  0.15777047  0.71396545  0.30680264    -0.06000
N789        N  0.20471315  0.66021790  0.20479224    -0.46100
N790        N  0.28688672  0.83914269  0.30405931    -0.46400
C791        C  0.16683835  0.68508187  0.32443261     0.42900
N792        N  0.18357933  0.79054034  0.28174154     0.01800
N793        N  0.28274730  0.69463856  0.29294071    -0.25100
N794        N  0.18688840  0.70984754  0.22002323    -0.25600
N795        N  0.30667344  0.71691836  0.28974549     0.01500
H796        H  0.27895289  0.65041088  0.32056208     0.07300
H797        H  0.34941411  0.78652015  0.31360143     0.07400
N798        N  0.20688769  0.81369992  0.28239269    -0.25600
N799        N  0.30600108  0.78488593  0.21586787    -0.25200
N800        N  0.20626354  0.69570157  0.29221772     0.01800
C801        C  0.16998108  0.81594808  0.17763194     0.43200
C802        C  0.28621988  0.66057044  0.20533404    -0.06500
N803        N  0.30570791  0.79134491  0.28460465    -0.25200
H804        H  0.35130940  0.77702977  0.18923574     0.07400
N805        N  0.16218946  0.78835404  0.19343087    -0.46400
H806        H  0.27139073  0.63811441  0.20383174     0.07400
C807        C  0.32500639  0.68435425  0.32536027     0.43100
C808        C  0.16682032  0.70076318  0.19626718    -0.06000
Co809      Co  0.24483529  0.69016897  0.25935665     0.73800
N810        N  0.32585838  0.69987004  0.19854458    -0.46200
C811        C  0.16753804  0.82401835  0.31819692     0.43300
N812        N  0.19700546  0.67447125  0.31402796    -0.46100
Co813      Co  0.30652247  0.75050496  0.25263013     0.73900
C814        C  0.32714274  0.80004536  0.30758079    -0.06500
C815        C  0.20084775  0.82919059  0.19118332    -0.06000
N816        N  0.18327863  0.71845232  0.28733586    -0.25600
N817        N  0.28886279  0.83065602  0.19324776    -0.46300
H818        H  0.21244857  0.85891580  0.31056104     0.07300
C819        C  0.29190668  0.67319211  0.31517032    -0.06400
Cl820      Cl  0.24549763  0.75084224  0.25290384    -0.49500
C821        C  0.31508762  0.66979338  0.18732847     0.43100
H822        H  0.13450094  0.72747300  0.30651710     0.07300
N823        N  0.33242153  0.71134740  0.30835004    -0.46200
C824        C  0.37419695  0.86889640  0.38414660     0.87000
C825        C  0.39956880  0.85059677  0.40480026    -0.53300
C826        C  0.41840931  0.87128294  0.42324963     0.09900
C827        C  0.41023414  0.90849681  0.41926225     0.20800
C828        C  0.35358984  0.89061951  0.40760871    -0.54000
C829        C  0.37269763  0.91152794  0.42598904     0.10000
C830        C  0.39510324  0.89393129  0.36541177    -0.53500
C831        C  0.41383553  0.91487523  0.38383454     0.10600
H832        H  0.40184389  0.82366702  0.40541871     0.15100
H833        H  0.42574086  0.92536368  0.43424701     0.00800
H834        H  0.32664032  0.89007709  0.40898087     0.15400
H835        H  0.39566878  0.89443210  0.33993578     0.15200
C836        C  0.36778859  0.61983886  0.37964157     0.87000
C837        C  0.39094925  0.59696291  0.35955692    -0.53300
C838        C  0.41258435  0.57862024  0.37705907     0.09900
C839        C  0.40903165  0.58506822  0.41270766     0.20800
C840        C  0.35065954  0.59621912  0.40273940    -0.54000
C841        C  0.37214068  0.57811759  0.42015049     0.10000
C842        C  0.39148621  0.64130375  0.40031864    -0.53500
C843        C  0.41342534  0.62303644  0.41734315     0.10600
H844        H  0.39019498  0.59539068  0.33409065     0.15100
H845        H  0.42652414  0.57022275  0.42696280     0.00800
H846        H  0.32386482  0.59393773  0.40513363     0.15400
H847        H  0.39061849  0.66831789  0.40176837     0.15200
C848        C  0.13018451  0.87988387  0.38359032     0.87000
C849        C  0.14721690  0.90322021  0.40766697    -0.53300
C850        C  0.12547680  0.92059040  0.42614924     0.09900
C851        C  0.08863061  0.91320029  0.41874795     0.20800
C852        C  0.10714945  0.85749073  0.40331327    -0.54000
C853        C  0.08515925  0.87512552  0.42173701     0.10000
C854        C  0.10664301  0.90246596  0.36498411    -0.53500
C855        C  0.08485111  0.91996487  0.38339989     0.10600
H856        H  0.17396783  0.90655646  0.40935318     0.15100
H857        H  0.07099963  0.92767806  0.43383082     0.00800
H858        H  0.10880772  0.83050589  0.40339562     0.15400
H859        H  0.10701268  0.90418638  0.33957280     0.15200
C860        C  0.12760658  0.62091030  0.37892176     0.87000
C861        C  0.10516718  0.59741578  0.35890842    -0.53300
C862        C  0.08375784  0.57893320  0.37640685     0.09900
C863        C  0.08699622  0.58580259  0.41209738     0.20800
C864        C  0.10337099  0.64220189  0.39924047    -0.54000
C865        C  0.08171085  0.62368810  0.41632035     0.10000
C866        C  0.14521349  0.59832347  0.40215012    -0.53500
C867        C  0.12414001  0.58018920  0.41973680     0.10600
H868        H  0.10599392  0.59579673  0.33343924     0.15100
H869        H  0.06985073  0.57066157  0.42647686     0.00800
H870        H  0.10385517  0.66923350  0.40059756     0.15400
H871        H  0.17206243  0.59655876  0.40443561     0.15200
N872        N  0.44603454  0.99991837  0.37337383    -0.36100
N873        N  0.49837468  0.95054892  0.37021113    -0.56700
N874        N  0.04860622  0.00247704  0.37322492    -0.36100
N875        N  0.49828894  0.54513096  0.36235389    -0.56700
C876        C  0.42861836  0.97213668  0.36553333     0.27500
C877        C  0.42918088  0.52067438  0.36158363     0.27500
C878        C  0.06661896  0.97555817  0.36418906     0.27400
C879        C  0.06723578  0.52150834  0.35908768     0.27400
C880        C  0.47211909  0.92957971  0.37062151     0.36100
C881        C  0.02565578  0.93101800  0.37056547     0.36100
C882        C  0.47126788  0.56518071  0.36160082     0.36100
C883        C  0.02502259  0.56546525  0.36140947     0.36100
C884        C  0.39915805  0.98088621  0.35119045    -0.21400
C885        C  0.39965593  0.50900896  0.34898959    -0.21400
C886        C  0.09470618  0.98551550  0.34814249    -0.21400
C887        C  0.09531827  0.51025456  0.34342987    -0.21400
C888        C  0.48275375  0.89697334  0.36887963    -0.22500
C889        C  0.01681762  0.89790283  0.36887392    -0.22500
C890        C  0.48089121  0.59775440  0.35760728    -0.22500
C891        C  0.01506064  0.59794225  0.35764083    -0.22500
C892        C  0.43856456  0.93928643  0.37173150    -0.17800
C893        C  0.43798844  0.55452831  0.36435369    -0.17800
C894        C  0.05839125  0.55509962  0.36336389    -0.17800
C895        C  0.05860146  0.94250312  0.37120746    -0.17800
H896        H  0.38034233  0.96417978  0.34178436     0.15100
H897        H  0.38013029  0.52364466  0.33857741     0.15100
H898        H  0.11367200  0.96966295  0.33770977     0.15100
H899        H  0.11358356  0.52518931  0.33146289     0.15100
H900        H  0.46730510  0.87513016  0.36591457     0.13400
H901        H  0.03344697  0.87696153  0.36582091     0.13400
H902        H  0.46471920  0.61875433  0.35376805     0.13400
H903        H  0.03099885  0.61910960  0.35367230     0.13400
H904        H  0.46822407  0.00085875  0.38590641     0.26600
H905        H  0.02721582  0.00241358  0.38703626     0.26600
C906        C  0.37779782  0.85770667  0.11625750     0.87000
C907        C  0.39768377  0.88338796  0.13610759    -0.53300
C908        C  0.41498838  0.90559765  0.11873299     0.09900
C909        C  0.41084630  0.90006010  0.08293287     0.20800
C910        C  0.35560416  0.87866521  0.09448446    -0.54000
C911        C  0.37288723  0.90105828  0.07705892     0.10000
C912        C  0.40388239  0.84126471  0.09409064    -0.53500
C913        C  0.42133581  0.86346204  0.07659133     0.10600
H914        H  0.39883052  0.88329440  0.16158249     0.15100
H915        H  0.42503320  0.91818176  0.06880735     0.00800
H916        H  0.32870809  0.87651529  0.09353191     0.15400
H917        H  0.40788741  0.81455917  0.09214917     0.15200
C918        C  0.13194916  0.87716448  0.11911499     0.87000
C919        C  0.10713590  0.89842473  0.13869315    -0.53300
C920        C  0.08607558  0.91677537  0.12089719     0.09900
C921        C  0.09175328  0.91189146  0.08520232     0.20800
C922        C  0.11029615  0.85570628  0.09654666    -0.54000
C923        C  0.08903692  0.87400424  0.07886117     0.10000
C924        C  0.14980351  0.90200035  0.09788158    -0.53500
C925        C  0.12881413  0.91999574  0.07994606     0.10600
H926        H  0.10613665  0.89866197  0.16417682     0.15100
H927        H  0.07464573  0.92683257  0.07063307     0.00800
H928        H  0.11211212  0.82878002  0.09430211     0.15400
H929        H  0.17658481  0.90548530  0.09738999     0.15200
N930        N  0.50707886  0.86010509  0.04470657    -0.36100
N931        N  0.45839593  0.85483470  0.99578762    -0.56700
N932        N  0.50265980  0.86293806  0.45488490    -0.36100
N933        N  0.05935275  0.85909414  0.99641178    -0.56700
C934        C  0.48031246  0.84924094  0.06085127     0.27500
C935        C  0.03433773  0.85139714  0.06109107     0.27500
C936        C  0.47555464  0.85294832  0.43856716     0.27400
C937        C  0.02952214  0.85331505  0.43790968     0.27400
C938        C  0.43742908  0.85258918  0.02050041     0.36100
C939        C  0.43209668  0.85874110  0.47880175     0.36100
C940        C  0.07873682  0.86054760  0.02230324     0.36100
C941        C  0.07342857  0.86076239  0.47725922     0.36100
C942        C  0.49065672  0.83251669  0.08709834    -0.21400
C943        C  0.02499707  0.83400065  0.08730976    -0.21400
C944        C  0.48516312  0.83580211  0.41153002    -0.21400
C945        C  0.01951381  0.83608544  0.41110261    -0.21400
C946        C  0.40546364  0.84679868  0.01028265    -0.22500
C947        C  0.39969101  0.85371164  0.48801856    -0.22500
C948        C  0.11179984  0.86184094  0.01385194    -0.22500
C949        C  0.10627749  0.85998994  0.48629812    -0.22500
C950        C  0.44693061  0.85411476  0.05221426    -0.17800
C951        C  0.06721342  0.85998129  0.05352377    -0.17800
C952        C  0.06266458  0.86053963  0.44585704    -0.17800
C953        C  0.44253516  0.85973760  0.44732839    -0.17800
H954        H  0.47510875  0.82016393  0.10401404     0.15100
H955        H  0.04128603  0.82329890  0.10460344     0.15100
H956        H  0.46908150  0.82423681  0.39408309     0.15100
H957        H  0.03534722  0.82485480  0.39323192     0.15100
H958        H  0.38430809  0.84066731  0.02468365     0.13400
H959        H  0.37886162  0.84787541  0.47287011     0.13400
H960        H  0.13289946  0.86025618  0.02941143     0.13400
H961        H  0.12764136  0.85690804  0.47109819     0.13400
H962        H  0.50683876  0.87471049  0.02480615     0.26600
H963        H  0.50272436  0.87769700  0.47529594     0.26600
C964        C  0.12310713  0.63212846  0.12027840     0.87000
C965        C  0.09901369  0.65072896  0.09868805    -0.53300
C966        C  0.08079401  0.63020742  0.07959052     0.09900
C967        C  0.08831237  0.59291683  0.08390462     0.20800
C968        C  0.10112712  0.60752218  0.13828108    -0.54000
C969        C  0.08301229  0.58675952  0.11925596     0.10000
C970        C  0.14457037  0.61026107  0.09786663    -0.53500
C971        C  0.12616231  0.58972118  0.07865855     0.10600
H972        H  0.09693153  0.67767859  0.09812894     0.15100
H973        H  0.07332283  0.57615655  0.06835226     0.00800
H974        H  0.09937304  0.60718368  0.16372352     0.15400
H975        H  0.17156880  0.61042065  0.09775741     0.15200
N976        N  0.44383791  0.99088373  0.13177428    -0.36100
N977        N  0.49821437  0.94379131  0.13428581    -0.56700
N978        N  0.04632328  0.99772565  0.13256523    -0.36100
N979        N  0.49754216  0.55345029  0.13376576    -0.56700
C980        C  0.42823623  0.96265583  0.14012343     0.27500
C981        C  0.42887159  0.53051478  0.14200813     0.27500
C982        C  0.06491053  0.97168801  0.14178167     0.27400
C983        C  0.06655885  0.53042892  0.13863510     0.27400
C984        C  0.47280344  0.92180160  0.13340331     0.36100
C985        C  0.02622578  0.92528463  0.13406033     0.36100
C986        C  0.47080732  0.57378735  0.13433664     0.36100
C987        C  0.02429885  0.57370695  0.13271676     0.36100
C988        C  0.39976807  0.97030611  0.15700533    -0.21400
C989        C  0.40116285  0.52173678  0.15920304    -0.21400
C990        C  0.09138636  0.98296501  0.15975215    -0.21400
C991        C  0.09521653  0.52193734  0.15444991    -0.21400
C992        C  0.48458474  0.88968546  0.13502669    -0.22500
C993        C  0.01863883  0.89189584  0.13539150    -0.22500
C994        C  0.48061740  0.60663572  0.13600600    -0.22500
C995        C  0.01466722  0.60659103  0.13498220    -0.22500
C996        C  0.43902286  0.93035191  0.13221833    -0.17800
C997        C  0.43757683  0.56322318  0.13425262    -0.17800
C998        C  0.05746043  0.56302466  0.13091083    -0.17800
C999        C  0.05863713  0.93816503  0.13377823    -0.17800
H1000       H  0.38255230  0.95294186  0.16733941     0.15100
H1001       H  0.38306194  0.53840138  0.16992251     0.15100
H1002       H  0.11014752  0.96796095  0.17090387     0.15100
H1003       H  0.11389570  0.53874245  0.16393560     0.15100
H1004       H  0.46991408  0.86736170  0.13758339     0.13400
H1005       H  0.03599013  0.87165810  0.13829477     0.13400
H1006       H  0.46473909  0.62808525  0.13957127     0.13400
H1007       H  0.03077080  0.62799732  0.13762837     0.13400
H1008       H  0.46502969  0.99251363  0.11777759     0.26600
H1009       H  0.02568564  0.99659195  0.11777674     0.26600
N1010       N  0.13820630  0.95685778  0.00319241    -0.36100
N1011       N  0.13906784  0.50328285  0.04853504    -0.56700
N1012       N  0.13613707  0.55290061  0.00020024    -0.36100
N1013       N  0.13993106  0.49639438  0.45307143    -0.56700
C1014       C  0.14881208  0.93975823  0.02812762     0.27500
C1015       C  0.14403619  0.93956114  0.47944485     0.27500
C1016       C  0.14606106  0.57145768  0.02533811     0.27400
C1017       C  0.14472324  0.56637276  0.47317379     0.27400
C1018       C  0.13858070  0.97998154  0.07092304     0.36100
C1019       C  0.14057465  0.53080382  0.06725562     0.36100
C1020       C  0.13561092  0.98021770  0.43853756     0.36100
C1021       C  0.13796228  0.52214916  0.43339560     0.36100
C1022       C  0.16871738  0.91345440  0.01829353    -0.21400
C1023       C  0.16222382  0.91204065  0.48804708    -0.21400
C1024       C  0.16217975  0.59976727  0.01544035    -0.21400
C1025       C  0.16205959  0.59522390  0.48072581    -0.21400
C1026       C  0.13810203  0.98870545  0.10235830    -0.22500
C1027       C  0.14309137  0.52220920  0.09830006    -0.22500
C1028       C  0.13794195  0.98913342  0.40760545    -0.22500
C1029       C  0.14022337  0.51109067  0.40263145    -0.22500
C1030       C  0.13993507  0.94713711  0.05929114    -0.17800
C1031       C  0.13572524  0.94735506  0.44862275    -0.17800
C1032       C  0.13587756  0.55569296  0.44277952    -0.17800
C1033       C  0.14006998  0.56369604  0.05685858    -0.17800
H1034       H  0.18126961  0.89573045  0.03294612     0.15100
H1035       H  0.17362812  0.89356422  0.47260614     0.15100
H1036       H  0.17343020  0.61902098  0.03011460     0.15100
H1037       H  0.17248069  0.61291239  0.46463088     0.15100
H1038       H  0.14075330  0.97208371  0.12176342     0.13400
H1039       H  0.14730739  0.53891279  0.11814674     0.13400
H1040       H  0.14215376  0.97263968  0.38763264     0.13400
H1041       H  0.14271176  0.52633888  0.38220269     0.13400
H1042       H  0.12164855  0.97683340  0.00378955     0.26600
H1043       H  0.12206106  0.53114933  0.00062929     0.26600
N1044       N  0.49737977  0.63763401  0.04766246    -0.36100
N1045       N  0.44659464  0.64174934  0.99991908    -0.56700
N1046       N  0.49780103  0.63508222  0.44891702    -0.36100
N1047       N  0.04749769  0.64293719  0.99870850    -0.56700
C1048       C  0.47043993  0.64707271  0.06454320     0.27500
C1049       C  0.02422029  0.64855859  0.06381243     0.27500
C1050       C  0.47062391  0.64292590  0.43191177     0.27400
C1051       C  0.02469506  0.64324308  0.43164791     0.27400
C1052       C  0.42656522  0.64211851  0.02539460     0.36100
C1053       C  0.42712781  0.64027863  0.47229336     0.36100
C1054       C  0.06782114  0.64307625  0.02394108     0.36100
C1055       C  0.06882880  0.64044444  0.47144115     0.36100
C1056       C  0.48009161  0.66515800  0.09098090    -0.21400
C1057       C  0.01435942  0.66605352  0.09053867    -0.21400
C1058       C  0.48027448  0.65714864  0.40411424    -0.21400
C1059       C  0.01460767  0.65744540  0.40398807    -0.21400
C1060       C  0.39394205  0.64669559  0.01673537    -0.22500
C1061       C  0.39449744  0.64335594  0.48180100    -0.22500
C1062       C  0.10052873  0.64552532  0.01469255    -0.22500
C1063       C  0.10168200  0.64276548  0.48045022    -0.22500
C1064       C  0.43751165  0.63949451  0.05646473    -0.17800
C1065       C  0.05725025  0.64208266  0.05531495    -0.17800
C1066       C  0.05801700  0.63770164  0.44015079    -0.17800
C1067       C  0.43742562  0.63726255  0.44084874    -0.17800
H1068       H  0.46410015  0.67675964  0.10850016     0.15100
H1069       H  0.03022223  0.67830606  0.10775567     0.15100
H1070       H  0.46416462  0.66692454  0.38618706     0.15100
H1071       H  0.03042300  0.66744760  0.38590962     0.15100
H1072       H  0.37302074  0.65091328  0.03224592     0.13400
H1073       H  0.37308010  0.64643717  0.46686484     0.13400
H1074       H  0.12179789  0.64917684  0.02984488     0.13400
H1075       H  0.12295527  0.64536300  0.46520087     0.13400
H1076       H  0.49750575  0.62258166  0.02740629     0.26600
H1077       H  0.49800208  0.62270365  0.47011942     0.26600
C1078       C  0.37225170  0.63251484  0.12240013     0.84000
C1079       C  0.39608047  0.64982109  0.09971476    -0.53300
C1080       C  0.41377649  0.62839687  0.08106664     0.09900
C1081       C  0.40591442  0.59126912  0.08684263     0.20800
C1082       C  0.35013247  0.60977215  0.10112480    -0.54000
C1083       C  0.36788999  0.58788658  0.08251001     0.10000
C1084       C  0.39431432  0.60837700  0.14090179    -0.53500
C1085       C  0.41179973  0.58654812  0.12232984     0.10600
H1086       H  0.39853899  0.67668264  0.09824905     0.15100
H1087       H  0.42052983  0.57379249  0.07165608     0.00800
H1088       H  0.32314761  0.61050850  0.10126035     0.15400
H1089       H  0.39662071  0.60916541  0.16631355     0.15200
N1090       N  0.34923259  0.98686136  0.04982635    -0.36100
N1091       N  0.36137458  0.93674716  0.99986660    -0.56700
N1092       N  0.36317729  0.99825213  0.45786419    -0.36100
N1093       N  0.35763220  0.55029592  0.00475217    -0.56700
C1094       C  0.35367029  0.95941310  0.06729035     0.27500
C1095       C  0.35267814  0.52817096  0.07119743     0.27500
C1096       C  0.35951411  0.97075768  0.43920540     0.27400
C1097       C  0.35901932  0.51947457  0.43445533     0.27400
C1098       C  0.35261161  0.91736656  0.02399577     0.36100
C1099       C  0.35330756  0.92866512  0.48007422     0.36100
C1100       C  0.34781199  0.56952812  0.02943721     0.36100
C1101       C  0.35394327  0.56438183  0.47461467     0.36100
C1102       C  0.35359788  0.96870696  0.09863508    -0.21400
C1103       C  0.35380296  0.51908829  0.10216240    -0.21400
C1104       C  0.35323258  0.98017554  0.40883993    -0.21400
C1105       C  0.35104845  0.50845215  0.40445612    -0.21400
C1106       C  0.34064089  0.88716731  0.01273077    -0.22500
C1107       C  0.33933634  0.89907236  0.48943052    -0.22500
C1108       C  0.33430650  0.59890873  0.01911327    -0.22500
C1109       C  0.33735456  0.59355730  0.48247019    -0.22500
C1110       C  0.35728612  0.92614983  0.05590123    -0.17800
C1111       C  0.35316035  0.56155775  0.06103221    -0.17800
C1112       C  0.36159571  0.55332355  0.44381294    -0.17800
C1113       C  0.35997743  0.93736651  0.44883736    -0.17800
H1114       H  0.35339520  0.95207366  0.11818187     0.15100
H1115       H  0.35212740  0.53574640  0.12233368     0.15100
H1116       H  0.34712472  0.96389596  0.38911438     0.15100
H1117       H  0.34495513  0.52373024  0.38468532     0.15100
H1118       H  0.33120451  0.86683003  0.02641811     0.13400
H1119       H  0.33010123  0.87902597  0.47444361     0.13400
H1120       H  0.32372798  0.61885724  0.03341561     0.13400
H1121       H  0.32674491  0.61125368  0.46652634     0.13400
H1122       H  0.34689326  0.98734042  0.02565793     0.26600
H1123       H  0.36908348  0.99903264  0.48140426     0.26600
C1124       C  0.35447369  0.84491231  0.36325526    -0.16000
C1125       C  0.33056627  0.85490033  0.34351716    -0.31100
H1126       H  0.36096075  0.81864685  0.36348410     0.13100
H1127       H  0.32302104  0.88088042  0.34383576     0.13600
C1128       C  0.34236555  0.63956565  0.36115875    -0.16000
C1129       C  0.35031665  0.66554955  0.34321561    -0.31100
H1130       H  0.31630760  0.63284997  0.36340640     0.13100
H1131       H  0.37610352  0.67341998  0.34170108     0.13600
C1132       C  0.14461949  0.84010912  0.34060532    -0.16000
C1133       C  0.15484185  0.86175494  0.36277553    -0.31100
H1134       H  0.11842104  0.83359239  0.33906750     0.13100
H1135       H  0.18121610  0.86720557  0.36515583     0.13600
C1136       C  0.33459274  0.84326073  0.15611791    -0.16000
C1137       C  0.35899911  0.83310285  0.13645568    -0.31100
H1138       H  0.32708182  0.86925830  0.15615265     0.13100
H1139       H  0.36592381  0.80694884  0.13541465     0.13600
C1140       C  0.15240381  0.64057781  0.36038521    -0.16000
C1141       C  0.14292970  0.66554376  0.34237740    -0.31100
H1142       H  0.17875167  0.63490402  0.36242221     0.13100
H1143       H  0.11679261  0.67227499  0.34114582     0.13600
C1144       C  0.14642493  0.83295926  0.15697346    -0.16000
C1145       C  0.15612255  0.85787418  0.13872109    -0.31100
H1146       H  0.12058244  0.82503369  0.15689657     0.13100
H1147       H  0.18226881  0.86469015  0.13807666     0.13600
C1148       C  0.35393098  0.65726186  0.14347122    -0.16000
C1149       C  0.33202008  0.64709195  0.16483465    -0.31100
H1150       H  0.35940606  0.68368689  0.14188170     0.13100
H1151       H  0.32576472  0.62078573  0.16563438     0.13600
C1152       C  0.14217247  0.65555694  0.14166988    -0.16000
C1153       C  0.16392862  0.64477214  0.16296374    -0.31100
H1154       H  0.13694066  0.68204419  0.14048946     0.13100
H1155       H  0.17014911  0.61847283  0.16382761     0.13600
C1156       C  0.18108572  0.66716885  0.68409503     0.42900
N1157       N  0.20977775  0.68377152  0.72367437     0.01800
C1158       C  0.20603689  0.83909402  0.79761300    -0.06100
H1159       H  0.21892934  0.84937117  0.68128286     0.07300
C1160       C  0.33346640  0.77741334  0.68878661    -0.06400
Co1161     Co  0.18834562  0.75055112  0.74826012     0.74200
N1162       N  0.21412873  0.80496753  0.70845301    -0.25600
Co1163     Co  0.25161047  0.80867375  0.74254687     0.74100
C1164       C  0.32548160  0.80727294  0.67176326     0.43000
N1165       N  0.30623551  0.70225737  0.71999451     0.01400
N1166       N  0.28951345  0.80111730  0.70868439     0.01500
N1167       N  0.16550919  0.80003341  0.79784251    -0.46400
H1168       H  0.14933036  0.71508016  0.68533873     0.07300
N1169       N  0.19036751  0.78237294  0.71039100     0.01800
N1170       N  0.28876714  0.81122880  0.77677364     0.01600
C1171       C  0.32234787  0.82893546  0.81256604     0.43200
N1172       N  0.28257599  0.68009253  0.72462090    -0.25000
C1173       C  0.16227910  0.71851753  0.80865555    -0.06000
N1174       N  0.20589362  0.65851722  0.70348343    -0.46100
N1175       N  0.29497601  0.83688063  0.79602321    -0.46400
C1176       C  0.17066882  0.68993778  0.82731847     0.42900
N1177       N  0.18931753  0.79211476  0.77765087     0.01800
N1178       N  0.28389847  0.69186835  0.79188969    -0.25100
N1179       N  0.18870152  0.70833936  0.71894872    -0.25600
N1180       N  0.30827744  0.71344979  0.78790995     0.01500
H1181       H  0.27874486  0.64968201  0.82201404     0.07300
H1182       H  0.35455466  0.78145607  0.80797202     0.07400
N1183       N  0.21334481  0.81452659  0.77652861    -0.25600
N1184       N  0.31038235  0.77592519  0.71138450    -0.25200
N1185       N  0.20785721  0.69569600  0.79154358     0.01800
C1186       C  0.17317676  0.81524838  0.67475655     0.43200
C1187       C  0.28680550  0.65430530  0.70454749    -0.06500
N1188       N  0.31083435  0.78702428  0.77922302    -0.25200
H1189       H  0.35492077  0.76129511  0.68645931     0.07400
N1190       N  0.16524215  0.78804060  0.69114379    -0.46400
H1191       H  0.27140982  0.63223964  0.70301336     0.07400
C1192       C  0.32540761  0.68304143  0.82535505     0.43100
C1193       C  0.16936580  0.70011494  0.69436622    -0.06000
Co1194     Co  0.24589272  0.68730514  0.75846912     0.73800
N1195       N  0.32689646  0.69297311  0.69708597    -0.46200
C1196       C  0.17421404  0.82904474  0.81172104     0.43300
N1197       N  0.19903833  0.67657881  0.81524685    -0.46100
Co1198     Co  0.30941668  0.74465822  0.74954143     0.73900
C1199       C  0.33302041  0.79585836  0.80143632    -0.06500
C1200       C  0.20576806  0.82656035  0.68614084    -0.06000
N1201       N  0.18622281  0.71981266  0.78686927    -0.25600
N1202       N  0.29811799  0.82104676  0.68550107    -0.46300
H1203       H  0.22019008  0.86173344  0.80141256     0.07300
C1204       C  0.29230940  0.67169553  0.81536176    -0.06400
Cl1205     Cl  0.24885769  0.74788737  0.74981638    -0.49500
C1206       C  0.31575187  0.66309043  0.68612926     0.43100
H1207       H  0.14035235  0.73410673  0.80970247     0.07300
N1208       N  0.33365547  0.70866651  0.80705298    -0.46200
C1209       C  0.38305315  0.86586832  0.87517675     0.87000
C1210       C  0.40888720  0.84741520  0.89510717    -0.53300
C1211       C  0.42638861  0.86773026  0.91500231     0.09900
C1212       C  0.41645268  0.90474654  0.91318584     0.20800
C1213       C  0.36101125  0.88500579  0.89934032    -0.54000
C1214       C  0.37862749  0.90556173  0.91923418     0.10000
C1215       C  0.40312028  0.89305382  0.85832330    -0.53500
C1216       C  0.42059671  0.91354964  0.87834238     0.10600
H1217       H  0.41240238  0.82059065  0.89423988     0.15100
H1218       H  0.43081048  0.92129824  0.92946882     0.00800
H1219       H  0.33408610  0.88317427  0.90003377     0.15400
H1220       H  0.40418444  0.89521089  0.83297521     0.15200
C1221       C  0.36626304  0.62216199  0.88314201     0.87000
C1222       C  0.38890762  0.59857353  0.86342523    -0.53300
C1223       C  0.41056283  0.58066373  0.88114288     0.09900
C1224       C  0.40751337  0.58816199  0.91668611     0.20800
C1225       C  0.34910707  0.59953793  0.90695785    -0.54000
C1226       C  0.37057401  0.58174727  0.92458996     0.10000
C1227       C  0.39033068  0.64412166  0.90292363    -0.53500
C1228       C  0.41231353  0.62624928  0.92022018     0.10600
H1229       H  0.38796404  0.59638588  0.83798808     0.15100
H1230       H  0.42503358  0.57357122  0.93113981     0.00800
H1231       H  0.32230725  0.59736571  0.90941305     0.15400
H1232       H  0.38961599  0.67115926  0.90364369     0.15200
C1233       C  0.13750451  0.88578575  0.87801963     0.87000
C1234       C  0.15485170  0.90792883  0.90305172    -0.53300
C1235       C  0.13334129  0.92413490  0.92279937     0.09900
C1236       C  0.09641315  0.91706680  0.91545122     0.20800
C1237       C  0.11474727  0.86231498  0.89701890    -0.54000
C1238       C  0.09306092  0.87885159  0.91668116     0.10000
C1239       C  0.11352240  0.90933629  0.86096674    -0.53500
C1240       C  0.09196562  0.92579909  0.88054129     0.10600
H1241       H  0.18161022  0.91129304  0.90447870     0.15100
H1242       H  0.07895527  0.93064019  0.93143460     0.00800
H1243       H  0.11627210  0.83533173  0.89560505     0.15400
H1244       H  0.11323155  0.91220360  0.83567322     0.15200
C1245       C  0.12492773  0.62431336  0.87830566     0.87000
C1246       C  0.10215473  0.59954305  0.86024251    -0.53300
C1247       C  0.08216658  0.58121360  0.87915198     0.09900
C1248       C  0.08700085  0.58915059  0.91443785     0.20800
C1249       C  0.10079394  0.64557986  0.89912622    -0.54000
C1250       C  0.08074612  0.62697168  0.91787574     0.10000
C1251       C  0.14427216  0.60285963  0.90166600    -0.53500
C1252       C  0.12458097  0.58439663  0.92062541     0.10600
H1253       H  0.10149313  0.59717729  0.83479777     0.15100
H1254       H  0.07090183  0.57402438  0.92984965     0.00800
H1255       H  0.09987859  0.67253994  0.89999191     0.15400
H1256       H  0.17124312  0.60166019  0.90249311     0.15200
N1257       N  0.44930260  0.00060290  0.87129829    -0.36100
N1258       N  0.50402141  0.95373171  0.86902361    -0.56700
N1259       N  0.05175094  0.00758675  0.87242923    -0.36100
N1260       N  0.49618290  0.54731759  0.86666757    -0.56700
C1261       C  0.43325166  0.97220071  0.86283076     0.27500
C1262       C  0.42697989  0.52301319  0.86432220     0.27500
C1263       C  0.07124275  0.98168318  0.86342932     0.27400
C1264       C  0.06528024  0.52369505  0.86260344     0.27400
C1265       C  0.47867372  0.93163442  0.86788315     0.36100
C1266       C  0.03213993  0.93533134  0.86862179     0.36100
C1267       C  0.46921099  0.56740212  0.86638217     0.36100
C1268       C  0.02300602  0.56764144  0.86617821     0.36100
C1269       C  0.40352726  0.97982445  0.84838823    -0.21400
C1270       C  0.39716385  0.51193110  0.85182186    -0.21400
C1271       C  0.09905542  0.99326021  0.84794282    -0.21400
C1272       C  0.09373436  0.51302394  0.84721445    -0.21400
C1273       C  0.49077563  0.89966746  0.86460537    -0.22500
C1274       C  0.02472839  0.90200997  0.86505145    -0.22500
C1275       C  0.47883366  0.60010644  0.86331148    -0.22500
C1276       C  0.01308202  0.60023693  0.86313683    -0.22500
C1277       C  0.44464523  0.93971660  0.86837467    -0.17800
C1278       C  0.43594744  0.55668711  0.86848232    -0.17800
C1279       C  0.05633993  0.55714691  0.86765315    -0.17800
C1280       C  0.06463865  0.94811199  0.86978130    -0.17800
H1281       H  0.38564075  0.96245084  0.83843555     0.15100
H1282       H  0.37745571  0.52702332  0.84231846     0.15100
H1283       H  0.11891414  0.97852228  0.83756881     0.15100
H1284       H  0.11213457  0.52837766  0.83592031     0.15100
H1285       H  0.47635913  0.87740821  0.85998654     0.13400
H1286       H  0.04225891  0.88202899  0.86086366     0.13400
H1287       H  0.46266404  0.62119971  0.85988797     0.13400
H1288       H  0.02904031  0.62143615  0.85943167     0.13400
H1289       H  0.47132500  0.00241667  0.88402358     0.26600
H1290       H  0.03019042  0.00638339  0.88592607     0.26600
C1291       C  0.37346206  0.87497370  0.62494412     0.87000
C1292       C  0.39580502  0.89946413  0.64386727    -0.53300
C1293       C  0.41537877  0.91901195  0.62567082     0.09900
C1294       C  0.41062441  0.91240502  0.59013957     0.20800
C1295       C  0.35368860  0.89688772  0.60245314    -0.54000
C1296       C  0.37291520  0.91643649  0.58419081     0.10000
C1297       C  0.39809448  0.85503172  0.60336098    -0.53500
C1298       C  0.41776455  0.87489163  0.58523938     0.10600
H1299       H  0.39643676  0.90081725  0.66935632     0.15100
H1300       H  0.42629450  0.92856278  0.57528602     0.00800
H1301       H  0.32669166  0.89742483  0.60152844     0.15400
H1302       H  0.39982245  0.82812512  0.60188498     0.15200
C1303       C  0.13181252  0.88122890  0.62208096     0.87000
C1304       C  0.10822374  0.90313887  0.64261268    -0.53300
C1305       C  0.08697137  0.92225491  0.62549266     0.09900
C1306       C  0.09133933  0.91743281  0.58968335     0.20800
C1307       C  0.10864435  0.86064685  0.60013023    -0.54000
C1308       C  0.08707998  0.87963239  0.58341509     0.10000
C1309       C  0.14949083  0.90577397  0.60045269    -0.53500
C1310       C  0.12847097  0.92463686  0.58345099     0.10600
H1311       H  0.10834139  0.90344009  0.66810377     0.15100
H1312       H  0.07421435  0.93295199  0.57568128     0.00800
H1313       H  0.10947433  0.83368159  0.59776349     0.15400
H1314       H  0.17633988  0.90815313  0.59870290     0.15200
N1315       N  0.50261219  0.86766131  0.55200490    -0.36100
N1316       N  0.45220741  0.86108464  0.50414753    -0.56700
N1317       N  0.51009076  0.86153437  0.94780848    -0.36100
N1318       N  0.05329743  0.86132590  0.50273962    -0.56700
C1319       C  0.47599290  0.85820286  0.56920044     0.27500
C1320       C  0.03015641  0.85941135  0.56838545     0.27500
C1321       C  0.48387119  0.85088990  0.93057686     0.27400
C1322       C  0.03778509  0.85422104  0.93095894     0.27400
C1323       C  0.43197882  0.86004224  0.52949875     0.36100
C1324       C  0.43909239  0.85301395  0.96991456     0.36100
C1325       C  0.07364522  0.86337747  0.52793901     0.36100
C1326       C  0.08018349  0.86197959  0.97161772     0.36100
C1327       C  0.48668865  0.84291068  0.59610328    -0.21400
C1328       C  0.02108037  0.84374859  0.59564658    -0.21400
C1329       C  0.49491946  0.83564642  0.90304320    -0.21400
C1330       C  0.02921298  0.83779165  0.90328241    -0.21400
C1331       C  0.39960906  0.85452860  0.52026901    -0.22500
C1332       C  0.40650799  0.84710131  0.97808049    -0.22500
C1333       C  0.10641574  0.86157312  0.51852560    -0.22500
C1334       C  0.11270935  0.86280026  0.98163498    -0.22500
C1335       C  0.44237879  0.86276245  0.56095470    -0.17800
C1336       C  0.06316727  0.86613316  0.55941958    -0.17800
C1337       C  0.07034249  0.86283302  0.93993003    -0.17800
C1338       C  0.45035541  0.85568175  0.93886120    -0.17800
H1339       H  0.47130276  0.83163853  0.61381971     0.15100
H1340       H  0.03757786  0.83345103  0.61298787     0.15100
H1341       H  0.47981817  0.82422338  0.88474489     0.15100
H1342       H  0.04594520  0.82835530  0.88525624     0.15100
H1343       H  0.37869174  0.84949546  0.53537807     0.13400
H1344       H  0.38625037  0.84144797  0.96219961     0.13400
H1345       H  0.12793463  0.85977290  0.53353876     0.13400
H1346       H  0.13461828  0.86210125  0.96694027     0.13400
H1347       H  0.50215591  0.88085378  0.53123529     0.26600
H1348       H  0.50893131  0.87529703  0.96879483     0.26600
C1349       C  0.12559959  0.63239581  0.61763307     0.87000
C1350       C  0.10100563  0.65072654  0.59630622    -0.53300
C1351       C  0.08234019  0.62998419  0.57778566     0.09900
C1352       C  0.09016683  0.59269201  0.58231585     0.20800
C1353       C  0.10403514  0.60795958  0.63627043    -0.54000
C1354       C  0.08559521  0.58698242  0.61778898     0.10000
C1355       C  0.14666445  0.61027190  0.59511754    -0.53500
C1356       C  0.12797089  0.58925964  0.57665054     0.10600
H1357       H  0.09896424  0.67766300  0.59546678     0.15100
H1358       H  0.07493029  0.57569922  0.56721421     0.00800
H1359       H  0.10273317  0.60794306  0.66174398     0.15400
H1360       H  0.17366086  0.61039434  0.59462905     0.15200
N1361       N  0.44797383  0.00309681  0.63269726    -0.36100
N1362       N  0.50067421  0.95374925  0.63958781    -0.56700
N1363       N  0.05082849  0.00496043  0.63314480    -0.36100
N1364       N  0.50022104  0.55389411  0.63191118    -0.56700
C1365       C  0.43159443  0.97637832  0.64362858     0.27500
C1366       C  0.43177533  0.53074876  0.63901558     0.27500
C1367       C  0.06893239  0.97908003  0.64354123     0.27400
C1368       C  0.06880303  0.53112281  0.63779235     0.27400
C1369       C  0.47418972  0.93302351  0.63996017     0.36100
C1370       C  0.02788189  0.93403231  0.64041126     0.36100
C1371       C  0.47343859  0.57407648  0.63112430     0.36100
C1372       C  0.02686887  0.57429616  0.63080229     0.36100
C1373       C  0.40408637  0.98656786  0.66075784    -0.21400
C1374       C  0.40461044  0.52214421  0.65704566    -0.21400
C1375       C  0.09693968  0.99073449  0.65898520    -0.21400
C1376       C  0.09676015  0.52232841  0.65454558    -0.21400
C1377       C  0.48448501  0.90061029  0.64354141    -0.22500
C1378       C  0.01867285  0.90125683  0.64378098    -0.22500
C1379       C  0.48303772  0.60700534  0.63188919    -0.22500
C1380       C  0.01707558  0.60716191  0.63168843    -0.22500
C1381       C  0.44078829  0.94310360  0.63805089    -0.17800
C1382       C  0.44033326  0.56328817  0.63086233    -0.17800
C1383       C  0.06004297  0.56373235  0.63005142    -0.17800
C1384       C  0.06097059  0.94526801  0.63882072    -0.17800
H1385       H  0.38660478  0.97086389  0.67287538     0.15100
H1386       H  0.38691846  0.53890065  0.66825010     0.15100
H1387       H  0.11572718  0.97599854  0.67041555     0.15100
H1388       H  0.11513583  0.53893667  0.66487277     0.15100
H1389       H  0.46877408  0.87919861  0.64719136     0.13400
H1390       H  0.03505383  0.88041363  0.64764901     0.13400
H1391       H  0.46694773  0.62841701  0.63445947     0.13400
H1392       H  0.03304843  0.62870136  0.63398732     0.13400
H1393       H  0.46884416  0.00258667  0.61814356     0.26600
H1394       H  0.02928567  0.00344498  0.61962082     0.26600
N1395       N  0.13491267  0.95755785  0.50513007    -0.36100
N1396       N  0.14235325  0.50188125  0.54792239    -0.56700
N1397       N  0.13651746  0.55033343  0.49951712    -0.36100
N1398       N  0.14047314  0.49979884  0.95325600    -0.56700
C1399       C  0.14616452  0.94099069  0.53011781     0.27500
C1400       C  0.15029823  0.94096902  0.97736757     0.27500
C1401       C  0.14746132  0.56931536  0.52391920     0.27400
C1402       C  0.14481907  0.56974001  0.97433915     0.27400
C1403       C  0.14226937  0.98368666  0.57155471     0.36100
C1404       C  0.14226325  0.52968641  0.56640707     0.36100
C1405       C  0.14135776  0.98333139  0.93807726     0.36100
C1406       C  0.13967439  0.52588274  0.93373059     0.36100
C1407       C  0.16353406  0.91292444  0.52038901    -0.21400
C1408       C  0.16968195  0.91424281  0.98590981    -0.21400
C1409       C  0.16373916  0.59712320  0.51308743    -0.21400
C1410       C  0.16139796  0.59868315  0.98299721    -0.21400
C1411       C  0.14490348  0.99409439  0.60246790    -0.22500
C1412       C  0.14375658  0.52146217  0.59757430    -0.22500
C1413       C  0.14253952  0.99405758  0.90763968    -0.22500
C1414       C  0.14238911  0.51489208  0.90296051    -0.22500
C1415       C  0.14002263  0.95033371  0.56135793    -0.17800
C1416       C  0.14349214  0.94994835  0.94645945    -0.17800
C1417       C  0.13753201  0.55957567  0.94330955    -0.17800
C1418       C  0.14172045  0.56246768  0.55555558    -0.17800
H1419       H  0.17600359  0.89517841  0.53507598     0.15100
H1420       H  0.18315221  0.89728861  0.97041618     0.15100
H1421       H  0.17553085  0.61661797  0.52707019     0.15100
H1422       H  0.17204564  0.61687647  0.96753465     0.15100
H1423       H  0.14789603  0.97841912  0.62254121     0.13400
H1424       H  0.14691483  0.53849705  0.61733900     0.13400
H1425       H  0.14749999  0.97899967  0.88684232     0.13400
H1426       H  0.14534521  0.53017843  0.88259332     0.13400
H1427       H  0.11977428  0.97862766  0.50578436     0.26600
H1428       H  0.12196314  0.52893038  0.50072305     0.26600
N1429       N  0.49857122  0.63860308  0.54554252    -0.36100
N1430       N  0.44760918  0.64094215  0.49739556    -0.56700
N1431       N  0.49675741  0.63823916  0.95080057    -0.36100
N1432       N  0.04874528  0.64142406  0.49685289    -0.56700
C1433       C  0.47165537  0.64903707  0.56198006     0.27500
C1434       C  0.02561687  0.64923776  0.56167908     0.27500
C1435       C  0.46948221  0.64693590  0.93434279     0.27400
C1436       C  0.02363987  0.64695204  0.93367154     0.27400
C1437       C  0.42761247  0.64180226  0.52288339     0.36100
C1438       C  0.42618181  0.64341927  0.97489217     0.36100
C1439       C  0.06914754  0.64181246  0.52202581     0.36100
C1440       C  0.06766866  0.64272477  0.97332218     0.36100
C1441       C  0.48155039  0.66750326  0.58812779    -0.21400
C1442       C  0.01591231  0.66764602  0.58794501    -0.21400
C1443       C  0.47902158  0.66230221  0.90704008    -0.21400
C1444       C  0.01342192  0.66234471  0.90661810    -0.21400
C1445       C  0.39479289  0.64423396  0.51403172    -0.22500
C1446       C  0.39368184  0.64749713  0.98453734    -0.22500
C1447       C  0.10188602  0.64356181  0.51266510    -0.22500
C1448       C  0.10044967  0.64524885  0.98245922    -0.22500
C1449       C  0.43859594  0.64134040  0.55410600    -0.17800
C1450       C  0.05861512  0.64165216  0.55342432    -0.17800
C1451       C  0.05700249  0.64086635  0.94192582    -0.17800
C1452       C  0.43632375  0.64102838  0.94339246    -0.17800
H1453       H  0.46565783  0.67960396  0.60544306     0.15100
H1454       H  0.03192151  0.67982257  0.60508807     0.15100
H1455       H  0.46283696  0.67271923  0.88949924     0.15100
H1456       H  0.02915311  0.67279884  0.88870487     0.15100
H1457       H  0.37367194  0.64815106  0.52937565     0.13400
H1458       H  0.37241820  0.65213657  0.96977754     0.13400
H1459       H  0.12330436  0.64701609  0.52767641     0.13400
H1460       H  0.12170356  0.64845963  0.96728949     0.13400
H1461       H  0.49848868  0.62296352  0.52569066     0.26600
H1462       H  0.49698544  0.62497144  0.97150833     0.26600
C1463       C  0.37309034  0.63037964  0.61953812     0.84000
C1464       C  0.39653856  0.64931956  0.59754102    -0.53300
C1465       C  0.41537483  0.62904871  0.57866295     0.09900
C1466       C  0.40880607  0.59151344  0.58347462     0.20800
C1467       C  0.35217158  0.60734272  0.59753048    -0.54000
C1468       C  0.37097500  0.58676906  0.57856173     0.10000
C1469       C  0.39587376  0.60677648  0.63771777    -0.53500
C1470       C  0.41440565  0.58622174  0.61890982     0.10600
H1471       H  0.39783592  0.67630128  0.59665512     0.15100
H1472       H  0.42426162  0.57494606  0.56813896     0.00800
H1473       H  0.32518296  0.60675528  0.59760356     0.15400
H1474       H  0.39776474  0.60688626  0.66316133     0.15200
N1475       N  0.35402114  0.00155627  0.55361689    -0.36100
N1476       N  0.36038148  0.94811590  0.50540170    -0.56700
N1477       N  0.36341636  0.99001904  0.95425646    -0.36100
N1478       N  0.36196952  0.54798822  0.50082106    -0.56700
C1479       C  0.35723599  0.97489081  0.57215937     0.27500
C1480       C  0.35679856  0.52668540  0.56767047     0.27500
C1481       C  0.36162532  0.96323710  0.93450395     0.27400
C1482       C  0.35726008  0.52311971  0.93831025     0.27400
C1483       C  0.35230003  0.93064478  0.53092504     0.36100
C1484       C  0.35615104  0.91865820  0.97325156     0.36100
C1485       C  0.35165158  0.56720467  0.52537837     0.36100
C1486       C  0.35151595  0.56771240  0.97872660     0.36100
C1487       C  0.35733467  0.98556181  0.60314411    -0.21400
C1488       C  0.35828671  0.51802076  0.59873168    -0.21400
C1489       C  0.35586085  0.97373160  0.90435740    -0.21400
C1490       C  0.34945807  0.51244562  0.90815490    -0.21400
C1491       C  0.33883871  0.90026122  0.52186599    -0.22500
C1492       C  0.34274221  0.88804606  0.98038448    -0.22500
C1493       C  0.33605629  0.59543352  0.51483990    -0.22500
C1494       C  0.33649911  0.59768854  0.98676649    -0.22500
C1495       C  0.35910063  0.94115483  0.56202677    -0.17800
C1496       C  0.35735289  0.55985246  0.55706139    -0.17800
C1497       C  0.35975896  0.55687428  0.94800328    -0.17800
C1498       C  0.36382446  0.92947060  0.94280105    -0.17800
H1499       H  0.35612973  0.96988192  0.62336284     0.15100
H1500       H  0.35713346  0.53494684  0.61873090     0.15100
H1501       H  0.35112201  0.95806608  0.88386890     0.15100
H1502       H  0.34328923  0.52794865  0.88856517     0.15100
H1503       H  0.32940106  0.88118003  0.53705201     0.13400
H1504       H  0.33491642  0.86863542  0.96397910     0.13400
H1505       H  0.32453343  0.61494245  0.52901693     0.13400
H1506       H  0.32746087  0.61634327  0.97095663     0.13400
H1507       H  0.35185011  0.00074305  0.52955833     0.26600
H1508       H  0.36848576  0.98971431  0.97805503     0.26600
C1509       C  0.36446273  0.84227897  0.85314523    -0.16000
C1510       C  0.33936231  0.85214070  0.83476783    -0.31100
H1511       H  0.37194837  0.81627933  0.85227411     0.13100
H1512       H  0.33103823  0.87786812  0.83611023     0.13600
C1513       C  0.34116890  0.64126204  0.86416737    -0.16000
C1514       C  0.35000682  0.66532584  0.84454181    -0.31100
H1515       H  0.31494878  0.63543231  0.86691662     0.13100
H1516       H  0.37603308  0.67223797  0.84247831     0.13600
C1517       C  0.15155947  0.84711964  0.83341149    -0.16000
C1518       C  0.16195025  0.86843997  0.85595149    -0.31100
H1519       H  0.12524525  0.84108841  0.83193484     0.13100
H1520       H  0.18840124  0.87336495  0.85848155     0.13600
C1521       C  0.34790337  0.82310306  0.64884435    -0.16000
C1522       C  0.34972204  0.85632774  0.64622592    -0.31100
H1523       H  0.36488550  0.80692487  0.63600394     0.13100
H1524       H  0.33315883  0.87168485  0.66063022     0.13600
C1525       C  0.14865676  0.64206329  0.85636476    -0.16000
C1526       C  0.14831549  0.67483884  0.85064522    -0.31100
H1527       H  0.16646517  0.62642560  0.84370443     0.13100
H1528       H  0.12957606  0.69094343  0.86108885     0.13600
C1529       C  0.14830657  0.83439899  0.65701820    -0.16000
C1530       C  0.15678648  0.86087883  0.64013782    -0.31100
H1531       H  0.12247321  0.82654323  0.65784650     0.13100
H1532       H  0.18290316  0.86762252  0.63859116     0.13600
C1533       C  0.35347012  0.65335941  0.64119151    -0.16000
C1534       C  0.33220252  0.64146671  0.66244178    -0.31100
H1535       H  0.35789596  0.68004366  0.64045121     0.13100
H1536       H  0.32687765  0.61493652  0.66262369     0.13600
C1537       C  0.14505016  0.65586652  0.63868373    -0.16000
C1538       C  0.16682963  0.64479708  0.65983643    -0.31100
H1539       H  0.13959960  0.68233071  0.63786731     0.13100
H1540       H  0.17310208  0.61848515  0.66024465     0.13600
C1541       C  0.67038221  0.16874624  0.19457904     0.42900
N1542       N  0.70315621  0.18602058  0.23097417     0.01800
C1543       C  0.71481680  0.34403789  0.29760666    -0.06100
H1544       H  0.71821784  0.34641813  0.17919511     0.07300
C1545       C  0.83250632  0.27405680  0.18861009    -0.06400
Co1546     Co  0.68672048  0.25464232  0.25434817     0.74200
N1547       N  0.71283720  0.30481256  0.20993329    -0.25600
Co1548     Co  0.75237461  0.30856861  0.24186146     0.74100
C1549       C  0.82501998  0.30410913  0.17143569     0.43000
N1550       N  0.80092766  0.19873540  0.22241812     0.01400
N1551       N  0.78811205  0.29779799  0.20733055     0.01500
N1552       N  0.67294206  0.30740606  0.30531676    -0.46400
H1553       H  0.64077723  0.21805828  0.19592978     0.07300
N1554       N  0.68804873  0.28396128  0.21481586     0.01800
N1555       N  0.79064171  0.31132369  0.27466482     0.01600
C1556       C  0.82189089  0.32800330  0.31268195     0.43200
N1557       N  0.77611514  0.17836617  0.22879127    -0.25000
C1558       C  0.66236810  0.22604102  0.31674732    -0.06000
N1559       N  0.69657362  0.16008349  0.21228721    -0.46100
N1560       N  0.79622624  0.33671603  0.29433691    -0.46400
C1561       C  0.67022917  0.19729961  0.33537224     0.42900
N1562       N  0.69264025  0.29744478  0.28205289     0.01800
N1563       N  0.78105040  0.19309378  0.29533324    -0.25100
N1564       N  0.68264677  0.21120404  0.22681717    -0.25600
N1565       N  0.80603920  0.21348129  0.28975779     0.01500
H1566       H  0.77506802  0.15298357  0.32773777     0.07300
H1567       H  0.85204520  0.27899550  0.31092898     0.07400
N1568       N  0.71739178  0.31827054  0.27710725    -0.25600
N1569       N  0.80874496  0.27250200  0.21065071    -0.25200
N1570       N  0.70597721  0.20073606  0.29817212     0.01800
C1571       C  0.67045531  0.31447898  0.17762350     0.43200
C1572       C  0.77837205  0.15100922  0.21034638    -0.06500
N1573       N  0.81141832  0.28625109  0.27848543    -0.25200
H1574       H  0.85434434  0.25835746  0.18721753     0.07400
N1575       N  0.66221169  0.28921790  0.19635797    -0.46400
H1576       H  0.76188017  0.12973940  0.21080202     0.07400
C1577       C  0.82306758  0.18463655  0.32825593     0.43100
C1578       C  0.66090229  0.20266972  0.20414034    -0.06000
Co1579     Co  0.74146219  0.18906081  0.26372824     0.73800
N1580       N  0.82057518  0.18643125  0.19987205    -0.46200
C1581       C  0.68557684  0.33646618  0.31639432     0.43300
N1582       N  0.69728940  0.18238958  0.32236259    -0.46100
Co1583     Co  0.80741158  0.24265442  0.25012025     0.73900
C1584       C  0.83225771  0.29447896  0.30218708    -0.06500
C1585       C  0.70420634  0.32493912  0.18650244    -0.06000
N1586       N  0.68538418  0.22582867  0.29404748    -0.25600
N1587       N  0.79738613  0.31774417  0.18449791    -0.46300
H1588       H  0.73133895  0.36526614  0.29916090     0.07300
C1589       C  0.78937356  0.17389036  0.31954094    -0.06400
Cl1590     Cl  0.74705262  0.24870432  0.25237843    -0.49500
C1591       C  0.80748286  0.15648951  0.19101672     0.43100
H1592       H  0.64100765  0.24238596  0.31815265     0.07300
N1593       N  0.83164744  0.20895531  0.30862873    -0.46200
C1594       C  0.87504049  0.36358532  0.38194822     0.87000
C1595       C  0.89915059  0.34521491  0.40380765    -0.53300
C1596       C  0.91671499  0.36583251  0.42343686     0.09900
C1597       C  0.90847199  0.40303847  0.41946638     0.20800
C1598       C  0.85277784  0.38503720  0.40434710    -0.54000
C1599       C  0.87058093  0.40586532  0.42405621     0.10000
C1600       C  0.89692565  0.38894907  0.36475697    -0.53500
C1601       C  0.91415157  0.40984984  0.38441753     0.10600
H1602       H  0.90182920  0.31830716  0.40400547     0.15100
H1603       H  0.92296838  0.41985172  0.43539753     0.00800
H1604       H  0.82579452  0.38454219  0.40391770     0.15400
H1605       H  0.89924442  0.38973693  0.33937473     0.15200
C1606       C  0.86494038  0.12419634  0.38553001     0.87000
C1607       C  0.88811880  0.10115766  0.36578291    -0.53300
C1608       C  0.91001101  0.08353915  0.38349294     0.09900
C1609       C  0.90685680  0.09105422  0.41905848     0.20800
C1610       C  0.84823749  0.10113768  0.40913636    -0.54000
C1611       C  0.87013586  0.08393269  0.42675414     0.10000
C1612       C  0.88841031  0.14663911  0.40557882    -0.53500
C1613       C  0.91064293  0.12920149  0.42302527     0.10600
H1614       H  0.88724894  0.09901173  0.34033921     0.15100
H1615       H  0.92460036  0.07675387  0.43353395     0.00800
H1616       H  0.82149490  0.09818987  0.41143930     0.15400
H1617       H  0.88694976  0.17364218  0.40652140     0.15200
C1618       C  0.62648144  0.36759523  0.38182185     0.87000
C1619       C  0.64721504  0.38930344  0.40489077    -0.53300
C1620       C  0.62824160  0.40919370  0.42413346     0.09900
C1621       C  0.59052235  0.40528856  0.41862776     0.20800
C1622       C  0.60234846  0.34798006  0.40274942    -0.54000
C1623       C  0.58347796  0.36776268  0.42211883     0.10000
C1624       C  0.60430441  0.39225325  0.36414237    -0.53500
C1625       C  0.58553541  0.41214770  0.38344198     0.10600
H1626       H  0.67420972  0.38992317  0.40506727     0.15100
H1627       H  0.57511039  0.42148595  0.43436124     0.00800
H1628       H  0.60093803  0.32097461  0.40284775     0.15400
H1629       H  0.60282708  0.39313940  0.33871280     0.15200
C1630       C  0.62305216  0.13125828  0.38361439     0.87000
C1631       C  0.60161371  0.10586600  0.36480314    -0.53300
C1632       C  0.58136948  0.08706728  0.38304103     0.09900
C1633       C  0.58454935  0.09544686  0.41843909     0.20800
C1634       C  0.59778720  0.15207757  0.40350168    -0.54000
C1635       C  0.57756152  0.13309318  0.42163751     0.10000
C1636       C  0.64194860  0.11050511  0.40766652    -0.53500
C1637       C  0.62187800  0.09188767  0.42599249     0.10600
H1638       H  0.60197542  0.10348030  0.33935522     0.15100
H1639       H  0.56824714  0.08002221  0.43340262     0.00800
H1640       H  0.59657338  0.17901278  0.40467162     0.15400
H1641       H  0.66889443  0.10971021  0.40933223     0.15200
N1642       N  0.94765229  0.49480620  0.37153386    -0.36100
N1643       N  0.99935895  0.44459689  0.37254789    -0.56700
N1644       N  0.55022919  0.49553764  0.37064301    -0.36100
N1645       N  0.99625104  0.05158733  0.36923121    -0.56700
C1646       C  0.92972466  0.46677304  0.36599581     0.27500
C1647       C  0.92746385  0.02635338  0.36497842     0.27500
C1648       C  0.56784418  0.46778041  0.36329441     0.27400
C1649       C  0.56559575  0.02958734  0.36405707     0.27400
C1650       C  0.97280389  0.42409978  0.37332908     0.36100
C1651       C  0.52631538  0.42459538  0.37285783     0.36100
C1652       C  0.96896927  0.07125090  0.36984990     0.36100
C1653       C  0.52263269  0.07247373  0.37000619     0.36100
C1654       C  0.90003863  0.47477176  0.35168911    -0.21400
C1655       C  0.89844734  0.01532328  0.35078473    -0.21400
C1656       C  0.59568151  0.47605613  0.34604185    -0.21400
C1657       C  0.59407326  0.01991178  0.34809087    -0.21400
C1658       C  0.98285753  0.39129445  0.37193335    -0.22500
C1659       C  0.51691451  0.39162669  0.37167268    -0.22500
C1660       C  0.97802934  0.10427312  0.36856917    -0.22500
C1661       C  0.51215767  0.10503785  0.36868819    -0.22500
C1662       C  0.93944984  0.43429173  0.37379260    -0.17800
C1663       C  0.93585279  0.06001376  0.37078933    -0.17800
C1664       C  0.55616843  0.06267212  0.37071015    -0.17800
C1665       C  0.55941231  0.43541600  0.37231167    -0.17800
H1666       H  0.88096106  0.45765886  0.34355481     0.15100
H1667       H  0.87893044  0.03051621  0.34108067     0.15100
H1668       H  0.61413507  0.45918451  0.33623424     0.15100
H1669       H  0.61240570  0.03596540  0.33758108     0.15100
H1670       H  0.96708268  0.36969031  0.36900253     0.13400
H1671       H  0.53308260  0.37034980  0.36846420     0.13400
H1672       H  0.96151003  0.12521212  0.36588821     0.13400
H1673       H  0.52774848  0.12667942  0.36595942     0.13400
H1674       H  0.97021651  0.49648375  0.38338253     0.26600
H1675       H  0.52903381  0.49699018  0.38468989     0.26600
C1676       C  0.87045757  0.37406671  0.12535439     0.87000
C1677       C  0.89196396  0.39948549  0.14419213    -0.53300
C1678       C  0.91139728  0.41915979  0.12586677     0.09900
C1679       C  0.90720720  0.41170240  0.09038782     0.20800
C1680       C  0.85044059  0.39520323  0.10224942    -0.54000
C1681       C  0.86944926  0.41503944  0.08395831     0.10000
C1682       C  0.89566591  0.35438798  0.10449766    -0.53500
C1683       C  0.91510297  0.37416223  0.08642220     0.10600
H1684       H  0.89249556  0.40102558  0.16967178     0.15100
H1685       H  0.92282617  0.42775191  0.07538532     0.00800
H1686       H  0.82345358  0.39516864  0.10110041     0.15400
H1687       H  0.89780028  0.32752289  0.10304949     0.15200
C1688       C  0.62846330  0.37797899  0.12286379     0.87000
C1689       C  0.60521549  0.40109399  0.14254604    -0.53300
C1690       C  0.58368385  0.41912263  0.12470041     0.09900
C1691       C  0.58752649  0.41215477  0.08909777     0.20800
C1692       C  0.60493787  0.35614172  0.10243618    -0.54000
C1693       C  0.58315542  0.37412989  0.08506521     0.10000
C1694       C  0.64580353  0.40108573  0.09957719    -0.53500
C1695       C  0.62454476  0.41878965  0.08168658     0.10600
H1696       H  0.60568321  0.40288104  0.16801407     0.15100
H1697       H  0.57015416  0.42677499  0.07451638     0.00800
H1698       H  0.60587775  0.32911636  0.10130478     0.15400
H1699       H  0.67262141  0.40347424  0.09750846     0.15200
N1700       N  0.99957415  0.36323057  0.05390223    -0.36100
N1701       N  0.94918798  0.35837548  0.00592806    -0.56700
N1702       N  0.00055881  0.35762861  0.45548466    -0.36100
N1703       N  0.54992073  0.35730317  0.00481335    -0.56700
C1704       C  0.97255281  0.35460146  0.07081616     0.27500
C1705       C  0.52658474  0.35356510  0.07008855     0.27500
C1706       C  0.97351440  0.34692531  0.43944766     0.27400
C1707       C  0.52748568  0.34727159  0.43892276     0.27400
C1708       C  0.92889436  0.35845943  0.03118649     0.36100
C1709       C  0.93017575  0.35474255  0.47929978     0.36100
C1710       C  0.57025262  0.35781652  0.02999502     0.36100
C1711       C  0.57139702  0.35564052  0.47805721     0.36100
C1712       C  0.98239980  0.33817502  0.09743589    -0.21400
C1713       C  0.51677431  0.33759023  0.09697830    -0.21400
C1714       C  0.98320838  0.32864146  0.41308927    -0.21400
C1715       C  0.51759009  0.32889068  0.41271664    -0.21400
C1716       C  0.89628036  0.35439922  0.02205841    -0.22500
C1717       C  0.89761554  0.35153171  0.48868613    -0.22500
C1718       C  0.60302600  0.35602365  0.02061024    -0.22500
C1719       C  0.60429388  0.35477884  0.48695030    -0.22500
C1720       C  0.93940093  0.36126091  0.06247613    -0.17800
C1721       C  0.55975027  0.35954197  0.06141186    -0.17800
C1722       C  0.56049515  0.35515771  0.44673446    -0.17800
C1723       C  0.94052399  0.35430904  0.44781779    -0.17800
H1724       H  0.96646038  0.32745957  0.11504027     0.15100
H1725       H  0.53276693  0.32647684  0.11428614     0.15100
H1726       H  0.96721156  0.31651352  0.39590824     0.15100
H1727       H  0.53346405  0.31705029  0.39523190     0.15100
H1728       H  0.87515018  0.35056795  0.03723292     0.13400
H1729       H  0.87657150  0.34616417  0.47367819     0.13400
H1730       H  0.62446433  0.35325388  0.03558934     0.13400
H1731       H  0.62552118  0.35162961  0.47160706     0.13400
H1732       H  0.99967546  0.37706660  0.03350864     0.26600
H1733       H  0.00066365  0.37326724  0.47534060     0.26600
C1734       C  0.61272222  0.13184599  0.13024820     0.87000
C1735       C  0.58777516  0.14927800  0.10866217    -0.53300
C1736       C  0.57150810  0.12796921  0.08869914     0.09900
C1737       C  0.58135273  0.09121076  0.09240066     0.20800
C1738       C  0.59212593  0.10522978  0.14730534    -0.54000
C1739       C  0.57567939  0.08380509  0.12744460     0.10000
C1740       C  0.63595596  0.11214276  0.10764944    -0.53500
C1741       C  0.61935444  0.09083819  0.08777143     0.10600
H1742       H  0.58393261  0.17604674  0.10855450     0.15100
H1743       H  0.56785863  0.07388527  0.07615995     0.00800
H1744       H  0.58991559  0.10416348  0.17267919     0.15400
H1745       H  0.66286458  0.11438810  0.10776271     0.15200
N1746       N  0.94608081  0.50289700  0.13334874    -0.36100
N1747       N  0.99757770  0.45257157  0.13868595    -0.56700
N1748       N  0.54879168  0.50270859  0.13153895    -0.36100
N1749       N  0.99181527  0.04462284  0.13775633    -0.56700
C1750       C  0.92878440  0.47649198  0.14376434     0.27500
C1751       C  0.92478734  0.01651581  0.14214871     0.27500
C1752       C  0.56654272  0.47651790  0.14176451     0.27400
C1753       C  0.56156016  0.02563435  0.14350035     0.27400
C1754       C  0.97066671  0.43234120  0.13888071     0.36100
C1755       C  0.52447146  0.43229169  0.13859551     0.36100
C1756       C  0.96370995  0.06304992  0.13775381     0.36100
C1757       C  0.51718257  0.06668423  0.13814698     0.36100
C1758       C  0.90102209  0.48734197  0.16019771    -0.21400
C1759       C  0.89756416  0.00464557  0.15828974    -0.21400
C1760       C  0.59523304  0.48765885  0.15640122    -0.21400
C1761       C  0.58924340  0.01730631  0.16085851    -0.21400
C1762       C  0.98044649  0.39962814  0.14124331    -0.22500
C1763       C  0.51465103  0.39960044  0.14105434    -0.22500
C1764       C  0.97121772  0.09645027  0.14044143    -0.22500
C1765       C  0.50524144  0.09876490  0.14067129    -0.22500
C1766       C  0.93731425  0.44298554  0.13799844    -0.17800
C1767       C  0.93125040  0.05019271  0.13659144    -0.17800
C1768       C  0.55106628  0.05827725  0.13771367    -0.17800
C1769       C  0.55784635  0.44287438  0.13718834    -0.17800
H1770       H  0.88276657  0.47205070  0.17178113     0.15100
H1771       H  0.87829030  0.01925155  0.16980522     0.15100
H1772       H  0.61403963  0.47261478  0.16743817     0.15100
H1773       H  0.60597387  0.03423074  0.17311226     0.15100
H1774       H  0.96439180  0.37843468  0.14464622     0.13400
H1775       H  0.53070187  0.37838851  0.14428299     0.13400
H1776       H  0.95379314  0.11666830  0.14390383     0.13400
H1777       H  0.51974030  0.12114673  0.14441480     0.13400
H1778       H  0.96717865  0.50196233  0.11913853     0.26600
H1779       H  0.52694537  0.50158132  0.11843682     0.26600
N1780       N  0.63494873  0.45016568  0.00161198    -0.36100
N1781       N  0.63933478  0.00735220  0.05322109    -0.56700
N1782       N  0.63150052  0.05939446  0.00839649    -0.36100
N1783       N  0.63528735  0.00742195  0.45764081    -0.56700
C1784       C  0.64363463  0.43364836  0.02763357     0.27500
C1785       C  0.64838510  0.42910510  0.47669648     0.27500
C1786       C  0.64139746  0.07663417  0.03431776     0.27400
C1787       C  0.64335767  0.07685251  0.47904810     0.27400
C1788       C  0.63822805  0.47731040  0.06808327     0.36100
C1789       C  0.63686246  0.03344688  0.07362596     0.36100
C1790       C  0.64089954  0.46873078  0.43451646     0.36100
C1791       C  0.63501596  0.03364860  0.43847043     0.36100
C1792       C  0.66133392  0.40527048  0.01935879    -0.21400
C1793       C  0.66556926  0.40155308  0.48681334    -0.21400
C1794       C  0.65711300  0.10571535  0.02586655    -0.21400
C1795       C  0.66070937  0.10551761  0.48717669    -0.21400
C1796       C  0.64173321  0.48814097  0.09880640    -0.22500
C1797       C  0.63695790  0.02276919  0.10411656    -0.22500
C1798       C  0.64207887  0.47703107  0.40334321    -0.22500
C1799       C  0.63749665  0.02320495  0.40754461    -0.22500
C1800       C  0.63572603  0.44378350  0.05849832    -0.17800
C1801       C  0.64154744  0.43602357  0.44526846    -0.17800
C1802       C  0.63438277  0.06704425  0.44840498    -0.17800
C1803       C  0.63535867  0.06692827  0.06522683    -0.17800
H1804       H  0.67241565  0.38758220  0.03504053     0.15100
H1805       H  0.67715150  0.38233427  0.47232298     0.15100
H1806       H  0.66800369  0.12437681  0.04145063     0.15100
H1807       H  0.67074279  0.12377974  0.47143945     0.15100
H1808       H  0.64505960  0.47277294  0.11904902     0.13400
H1809       H  0.63816386  0.03825790  0.12514833     0.13400
H1810       H  0.64593259  0.46020212  0.38352897     0.13400
H1811       H  0.64121569  0.03877274  0.38748392     0.13400
H1812       H  0.62031720  0.47154578  0.00085593     0.26600
H1813       H  0.61769007  0.03741909  0.00775997     0.26600
N1814       N  0.98923373  0.12982029  0.05458685    -0.36100
N1815       N  0.93970171  0.13407763  0.00582109    -0.56700
N1816       N  0.99417075  0.14273542  0.45463927    -0.36100
N1817       N  0.53990631  0.14263636  0.00729202    -0.56700
C1818       C  0.96128705  0.13738077  0.07072732     0.27500
C1819       C  0.51462491  0.14268864  0.07150439     0.27500
C1820       C  0.96687458  0.15132588  0.43819117     0.27400
C1821       C  0.52087450  0.15259470  0.43791818     0.27400
C1822       C  0.91903117  0.13102909  0.03057049     0.36100
C1823       C  0.92366688  0.14607271  0.47836816     0.36100
C1824       C  0.55953919  0.14177849  0.03298557     0.36100
C1825       C  0.56509220  0.14769538  0.47731373     0.36100
C1826       C  0.96879614  0.15624057  0.09732260    -0.21400
C1827       C  0.50284486  0.15952818  0.09787385    -0.21400
C1828       C  0.97621072  0.16767238  0.41135958    -0.21400
C1829       C  0.51053849  0.16850616  0.41118014    -0.21400
C1830       C  0.88639534  0.13392885  0.02140227    -0.22500
C1831       C  0.89110611  0.14907383  0.48806629    -0.22500
C1832       C  0.59226240  0.14677238  0.02488307    -0.22500
C1833       C  0.59795602  0.14982927  0.48628304    -0.22500
C1834       C  0.92933229  0.12766184  0.06163267    -0.17800
C1835       C  0.54813085  0.13868972  0.06391157    -0.17800
C1836       C  0.55418784  0.14660025  0.44598404    -0.17800
C1837       C  0.93389639  0.14431968  0.44680693    -0.17800
H1838       H  0.95153584  0.16678197  0.11432074     0.15100
H1839       H  0.51731741  0.17290105  0.11546615     0.15100
H1840       H  0.95992171  0.17807701  0.39389815     0.15100
H1841       H  0.52616818  0.17958715  0.39353357     0.15100
H1842       H  0.86492200  0.13581793  0.03658434     0.13400
H1843       H  0.86969943  0.15299528  0.47329787     0.13400
H1844       H  0.61282562  0.15064495  0.04083832     0.13400
H1845       H  0.61909923  0.15333404  0.47104688     0.13400
H1846       H  0.99102873  0.11491513  0.03426699     0.26600
H1847       H  0.99460974  0.12879826  0.47495390     0.26600
C1848       C  0.86293449  0.11664767  0.12571342     0.84000
C1849       C  0.88678439  0.13526306  0.10400190    -0.53300
C1850       C  0.90552298  0.11501762  0.08526039     0.09900
C1851       C  0.89865535  0.07762121  0.08968962     0.20800
C1852       C  0.84195160  0.09398097  0.10329869    -0.54000
C1853       C  0.86088379  0.07335885  0.08431334     0.10000
C1854       C  0.88532890  0.09256790  0.14395196    -0.53500
C1855       C  0.90401947  0.07201739  0.12507421     0.10600
H1856       H  0.88853986  0.16223039  0.10320479     0.15100
H1857       H  0.91417333  0.06115575  0.07430403     0.00800
H1858       H  0.81496797  0.09403811  0.10276230     0.15400
H1859       H  0.88734753  0.09283748  0.16938060     0.15200
N1860       N  0.85091691  0.50026960  0.05270223    -0.36100
N1861       N  0.85688342  0.44643316  0.00503008    -0.56700
N1862       N  0.86191376  0.49306857  0.45335077    -0.36100
N1863       N  0.85579350  0.04062144  0.00456773    -0.56700
C1864       C  0.85381698  0.47368047  0.07148126     0.27500
C1865       C  0.84935047  0.01372049  0.06968116     0.27500
C1866       C  0.85652461  0.46527169  0.43549226     0.27400
C1867       C  0.85960997  0.02499056  0.43954340     0.27400
C1868       C  0.84840795  0.42920870  0.03062167     0.36100
C1869       C  0.85023506  0.42430352  0.47742161     0.36100
C1870       C  0.84307103  0.05710444  0.02984137     0.36100
C1871       C  0.85151500  0.06897175  0.48038906     0.36100
C1872       C  0.85440183  0.48468177  0.10235883    -0.21400
C1873       C  0.85092333  0.00297510  0.10015171    -0.21400
C1874       C  0.84952868  0.47416619  0.40509920    -0.21400
C1875       C  0.85332384  0.01448606  0.40904190    -0.21400
C1876       C  0.83416741  0.39913832  0.02167585    -0.22500
C1877       C  0.83565550  0.39529264  0.48751014    -0.22500
C1878       C  0.82696673  0.08558570  0.02054065    -0.22500
C1879       C  0.83514521  0.09819924  0.48857678    -0.22500
C1880       C  0.85538415  0.43975335  0.06168414    -0.17800
C1881       C  0.84785857  0.04764053  0.06120754    -0.17800
C1882       C  0.86009382  0.05862698  0.44968206    -0.17800
C1883       C  0.85657470  0.43210556  0.44586570    -0.17800
H1884       H  0.85325379  0.46921988  0.12272980     0.15100
H1885       H  0.84836288  0.01836230  0.12111524     0.15100
H1886       H  0.84234618  0.45763076  0.38588252     0.15100
H1887       H  0.84709491  0.03004000  0.38951076     0.15100
H1888       H  0.82427412  0.38033825  0.03692438     0.13400
H1889       H  0.82584410  0.37513988  0.47298132     0.13400
H1890       H  0.81402393  0.10351763  0.03544825     0.13400
H1891       H  0.82506079  0.11642103  0.47286298     0.13400
H1892       H  0.84862769  0.49935291  0.02857807     0.26600
H1893       H  0.86869092  0.49410372  0.47672684     0.26600
C1894       C  0.85713656  0.33980528  0.35943120    -0.16000
C1895       C  0.83625763  0.35045493  0.33721058    -0.31100
H1896       H  0.86287259  0.31339798  0.36029076     0.13100
H1897       H  0.82976983  0.37670543  0.33671484     0.13600
C1898       C  0.83941996  0.14268644  0.36661573    -0.16000
C1899       C  0.84777315  0.16732439  0.34752476    -0.31100
H1900       H  0.81337989  0.13592899  0.36896399     0.13100
H1901       H  0.87363986  0.17489426  0.34575708     0.13600
C1902       C  0.66964230  0.35781439  0.34053440    -0.16000
C1903       C  0.64660165  0.34551555  0.35995852    -0.31100
H1904       H  0.67611853  0.38407911  0.34181396     0.13100
H1905       H  0.64119886  0.31897533  0.35913781     0.13600
C1906       C  0.84813702  0.32111540  0.15002711    -0.16000
C1907       C  0.84727032  0.35434605  0.14626472    -0.31100
H1908       H  0.86722663  0.30590059  0.13902191     0.13100
H1909       H  0.82877218  0.36879051  0.15927787     0.13600
C1910       C  0.64723376  0.14932256  0.36270765    -0.16000
C1911       C  0.64730564  0.18223159  0.35795866    -0.31100
H1912       H  0.66530523  0.13383031  0.35021713     0.13100
H1913       H  0.62868417  0.19838894  0.36849296     0.13600
C1914       C  0.64542224  0.33300531  0.15957392    -0.16000
C1915       C  0.65368329  0.35868572  0.14159048    -0.31100
H1916       H  0.61957132  0.32533144  0.16113409     0.13100
H1917       H  0.67975877  0.36535616  0.13944801     0.13600
C1918       C  0.84419144  0.14116225  0.14676895    -0.16000
C1919       C  0.82230871  0.13197388  0.16862267    -0.31100
H1920       H  0.84996473  0.16752005  0.14502660     0.13100
H1921       H  0.81524251  0.10595112  0.17022810     0.13600
C1922       C  0.63033034  0.15593782  0.15226652    -0.16000
C1923       C  0.65406037  0.14583340  0.17195721    -0.31100
H1924       H  0.62327029  0.18205129  0.15218864     0.13100
H1925       H  0.66172806  0.11987912  0.17148515     0.13600
C1926       C  0.67628606  0.17154536  0.69131078     0.42900
N1927       N  0.70633718  0.18789462  0.73001384     0.01800
C1928       C  0.71212787  0.34533568  0.79859915    -0.06100
H1929       H  0.72242627  0.34748322  0.67883654     0.07300
C1930       C  0.83512990  0.27790958  0.69364695    -0.06400
Co1931     Co  0.68749669  0.25576756  0.75350990     0.74200
N1932       N  0.71515624  0.30714156  0.71089398    -0.25600
Co1933     Co  0.75274290  0.31114107  0.74458760     0.74100
C1934       C  0.82750382  0.30742783  0.67564812     0.43000
N1935       N  0.80416325  0.20318076  0.72644738     0.01400
N1936       N  0.79030995  0.30150554  0.71146861     0.01500
N1937       N  0.67050184  0.30803427  0.80482806    -0.46400
H1938       H  0.64603797  0.22038831  0.69228381     0.07300
N1939       N  0.69083354  0.28542291  0.71423356     0.01800
N1940       N  0.78922873  0.31397263  0.77900797     0.01600
C1941       C  0.81919278  0.33084185  0.81760027     0.43200
N1942       N  0.77966386  0.18185674  0.73097190    -0.25000
C1943       C  0.65820309  0.22440708  0.81235467    -0.06000
N1944       N  0.70130637  0.16245560  0.71028530    -0.46100
N1945       N  0.79399752  0.33945573  0.79870978    -0.46400
C1946       C  0.66482297  0.19556514  0.83118947     0.42900
N1947       N  0.69126903  0.29841519  0.78218713     0.01800
N1948       N  0.78063657  0.19485701  0.79816185    -0.25100
N1949       N  0.68582317  0.21294009  0.72529298    -0.25600
N1950       N  0.80558689  0.21580002  0.79420080     0.01500
H1951       H  0.77416216  0.15284862  0.82829977     0.07300
H1952       H  0.85024150  0.28240646  0.81644046     0.07400
N1953       N  0.71589628  0.31967621  0.77824643    -0.25600
N1954       N  0.81114808  0.27652755  0.71554206    -0.25200
N1955       N  0.70462239  0.20123646  0.79773264     0.01800
C1956       C  0.67621641  0.31352254  0.67437141     0.43200
C1957       C  0.78348159  0.15577464  0.71106025    -0.06500
N1958       N  0.81015623  0.28916754  0.78345385    -0.25200
H1959       H  0.85682334  0.26201213  0.69233768     0.07400
N1960       N  0.66713798  0.28844442  0.69296554    -0.46400
H1961       H  0.76740526  0.13421133  0.70937395     0.07400
C1962       C  0.82163292  0.18496632  0.83197442     0.43100
C1963       C  0.66573447  0.20493342  0.70123334    -0.06000
Co1964     Co  0.74271878  0.19087596  0.76469936     0.73800
N1965       N  0.82487650  0.19311824  0.70391467    -0.46200
C1966       C  0.68238168  0.33732590  0.81633387     0.43300
N1967       N  0.69378716  0.18193627  0.82059062    -0.46100
Co1968     Co  0.80834776  0.24611380  0.75487846     0.73900
C1969       C  0.83028156  0.29754599  0.80750363    -0.06500
C1970       C  0.70808743  0.32625924  0.68625538    -0.06000
N1971       N  0.68381112  0.22590357  0.79237625    -0.25600
N1972       N  0.79954575  0.32101537  0.68821025    -0.46300
H1973       H  0.72828093  0.36679873  0.80075550     0.07300
C1974       C  0.78833936  0.17451312  0.82174525    -0.06400
Cl1975     Cl  0.74788092  0.25093539  0.75447824    -0.49500
C1976       C  0.81313382  0.16351253  0.69299951     0.43100
H1977       H  0.63617503  0.23983562  0.81173974     0.07300
N1978       N  0.83061552  0.21038803  0.81362632    -0.46200
C1979       C  0.87288859  0.36640473  0.88513315     0.87000
C1980       C  0.89734370  0.34835470  0.90667834    -0.53300
C1981       C  0.91556978  0.36929987  0.92530380     0.09900
C1982       C  0.90753148  0.40650138  0.92079682     0.20800
C1983       C  0.85134171  0.38841345  0.90753195    -0.54000
C1984       C  0.86972000  0.40960540  0.92625832     0.10000
C1985       C  0.89443843  0.39104573  0.86674135    -0.53500
C1986       C  0.91234717  0.41227016  0.88541657     0.10600
H1987       H  0.89976542  0.32144388  0.90748315     0.15100
H1988       H  0.92255196  0.42356291  0.93603180     0.00800
H1989       H  0.82435844  0.38779596  0.90799724     0.15400
H1990       H  0.89601971  0.39113980  0.84128215     0.15200
C1991       C  0.86277334  0.12078795  0.88698275     0.87000
C1992       C  0.88670585  0.09953269  0.86622117    -0.53300
C1993       C  0.90895437  0.08135216  0.88308736     0.09900
C1994       C  0.90504103  0.08617083  0.91889253     0.20800
C1995       C  0.84630006  0.09577604  0.90921204    -0.54000
C1996       C  0.86835217  0.07772895  0.92613037     0.10000
C1997       C  0.88567760  0.14226624  0.90835678    -0.53500
C1998       C  0.90817941  0.12408188  0.92470519     0.10600
H1999       H  0.88638141  0.09933214  0.84072965     0.15100
H2000       H  0.92305275  0.07140681  0.93264864     0.00800
H2001       H  0.81958976  0.09237652  0.91117389     0.15400
H2002       H  0.88374126  0.16916471  0.91090030     0.15200
C2003       C  0.62431071  0.36954540  0.88242177     0.87000
C2004       C  0.64542827  0.39221963  0.90449429    -0.53300
C2005       C  0.62674230  0.41262152  0.92364417     0.09900
C2006       C  0.58894013  0.40815397  0.91900363     0.20800
C2007       C  0.60095819  0.35046439  0.90441943    -0.54000
C2008       C  0.58242609  0.37068425  0.92364067     0.10000
C2009       C  0.60145717  0.39342827  0.86458488    -0.53500
C2010       C  0.58302009  0.41378603  0.88371706     0.10600
H2011       H  0.67242145  0.39272766  0.90434855     0.15100
H2012       H  0.57369006  0.42464329  0.93460793     0.00800
H2013       H  0.59953980  0.32347845  0.90508918     0.15400
H2014       H  0.59946854  0.39364721  0.83915906     0.15200
C2015       C  0.62270577  0.13631790  0.89004944     0.87000
C2016       C  0.60194618  0.11219985  0.86908872    -0.53300
C2017       C  0.58081426  0.09243149  0.88553494     0.09900
C2018       C  0.58286357  0.09838602  0.92144504     0.20800
C2019       C  0.59672203  0.15597503  0.91016197    -0.54000
C2020       C  0.57560937  0.13575971  0.92653863     0.10000
C2021       C  0.64056224  0.11406592  0.91353196    -0.53500
C2022       C  0.61992632  0.09452985  0.93019328     0.10600
H2023       H  0.60349830  0.11125337  0.84363104     0.15100
H2024       H  0.56611114  0.08193601  0.93493428     0.00800
H2025       H  0.59591579  0.18295849  0.91209671     0.15400
H2026       H  0.66739397  0.11326019  0.91641551     0.15200
N2027       N  0.94564101  0.49668586  0.87289621    -0.36100
N2028       N  0.99716292  0.44621948  0.87136234    -0.56700
N2029       N  0.54789263  0.49727344  0.87279519    -0.36100
N2030       N  0.99711981  0.05462432  0.86813657    -0.56700
C2031       C  0.92752111  0.46896498  0.86673650     0.27500
C2032       C  0.92956986  0.02623028  0.86308700     0.27500
C2033       C  0.56572030  0.46983065  0.86488327     0.27400
C2034       C  0.56751348  0.03566080  0.86380955     0.27400
C2035       C  0.97053679  0.42580139  0.87145889     0.36100
C2036       C  0.52400571  0.42614533  0.87119685     0.36100
C2037       C  0.96889056  0.07298852  0.86907337     0.36100
C2038       C  0.52262692  0.07662151  0.86995552     0.36100
C2039       C  0.89751835  0.47758797  0.85337217    -0.21400
C2040       C  0.90112334  0.01416104  0.84863625    -0.21400
C2041       C  0.59398285  0.47875837  0.84863194    -0.21400
C2042       C  0.59671322  0.02761539  0.84824696    -0.21400
C2043       C  0.98046979  0.39298408  0.86896560    -0.22500
C2044       C  0.51451982  0.39323022  0.86882348    -0.22500
C2045       C  0.97654968  0.10643936  0.86905807    -0.22500
C2046       C  0.51068093  0.10874686  0.86962689    -0.22500
C2047       C  0.93729553  0.43624095  0.87340442    -0.17800
C2048       C  0.93622591  0.06009245  0.86947873    -0.17800
C2049       C  0.55664081  0.06814030  0.87108234    -0.17800
C2050       C  0.55707680  0.43707814  0.87230597    -0.17800
H2051       H  0.87817136  0.46082638  0.84514264     0.15100
H2052       H  0.88096035  0.02862981  0.83910223     0.15100
H2053       H  0.61256732  0.46222527  0.83853185     0.15100
H2054       H  0.61446520  0.04470641  0.83831592     0.15100
H2055       H  0.96460440  0.37144192  0.86591092     0.13400
H2056       H  0.53066518  0.37195024  0.86546350     0.13400
H2057       H  0.95914407  0.12677296  0.86710263     0.13400
H2058       H  0.52534535  0.13119699  0.86811931     0.13400
H2059       H  0.96838401  0.49772408  0.88444998     0.26600
H2060       H  0.52634452  0.49809856  0.88636793     0.26600
C2061       C  0.87234789  0.37447554  0.62467344     0.87000
C2062       C  0.89415392  0.40046226  0.64244534    -0.53300
C2063       C  0.91355351  0.41927664  0.62334282     0.09900
C2064       C  0.90913766  0.41047749  0.58814933     0.20800
C2065       C  0.85234459  0.39484368  0.60090975    -0.54000
C2066       C  0.87140363  0.41376478  0.58178044     0.10000
C2067       C  0.89736880  0.35383566  0.60425274    -0.53500
C2068       C  0.91683452  0.37283204  0.58528845     0.10600
H2069       H  0.89488439  0.40300875  0.66787110     0.15100
H2070       H  0.92473481  0.42590529  0.57255240     0.00800
H2071       H  0.82534977  0.39515752  0.60005280     0.15400
H2072       H  0.89923241  0.32692597  0.60378930     0.15200
C2073       C  0.62934823  0.37772168  0.62333344     0.87000
C2074       C  0.60625756  0.40214113  0.64144704    -0.53300
C2075       C  0.58582746  0.41994604  0.62257543     0.09900
C2076       C  0.59047254  0.41179648  0.58730736     0.20800
C2077       C  0.60559190  0.35580491  0.60276070    -0.54000
C2078       C  0.58506080  0.37382195  0.58403597     0.10000
C2079       C  0.64809841  0.39940159  0.59980189    -0.53500
C2080       C  0.62787512  0.41730352  0.58097372     0.10600
H2081       H  0.60581209  0.40475448  0.66687934     0.15100
H2082       H  0.57399328  0.42649570  0.57191222     0.00800
H2083       H  0.60533862  0.32883046  0.60195516     0.15400
H2084       H  0.67503090  0.40124645  0.59879618     0.15200
N2085       N  0.00120883  0.36188848  0.55262229    -0.36100
N2086       N  0.95052893  0.35649382  0.50450681    -0.56700
N2087       N  0.99946252  0.36106689  0.95707203    -0.36100
N2088       N  0.55138197  0.35564266  0.50357777    -0.56700
C2089       C  0.97425668  0.35282496  0.56947342     0.27500
C2090       C  0.52839132  0.35250477  0.56883317     0.27500
C2091       C  0.97243678  0.35100224  0.94071975     0.27400
C2092       C  0.52623980  0.35125474  0.94016435     0.27400
C2093       C  0.93036507  0.35693860  0.52991039     0.36100
C2094       C  0.92896532  0.35686120  0.98069123     0.36100
C2095       C  0.57186243  0.35724590  0.52870434     0.36100
C2096       C  0.57009226  0.35771215  0.97943640     0.36100
C2097       C  0.98435602  0.33643089  0.59603945    -0.21400
C2098       C  0.51873542  0.33621939  0.59561349    -0.21400
C2099       C  0.98203149  0.33372489  0.91377363    -0.21400
C2100       C  0.51630789  0.33386617  0.91343159    -0.21400
C2101       C  0.89771213  0.35298205  0.52090031    -0.22500
C2102       C  0.89635013  0.35330920  0.98986454    -0.22500
C2103       C  0.60458923  0.35574689  0.51918024    -0.22500
C2104       C  0.60291040  0.35596048  0.98839770    -0.22500
C2105       C  0.94095628  0.35932162  0.56127705    -0.17800
C2106       C  0.56152137  0.35915551  0.56022793    -0.17800
C2107       C  0.55925696  0.35846647  0.94818010    -0.17800
C2108       C  0.93949122  0.35784830  0.94937423    -0.17800
H2109       H  0.96855853  0.32560547  0.61369596     0.15100
H2110       H  0.53483761  0.32535927  0.61297655     0.15100
H2111       H  0.96598273  0.32203698  0.89637810     0.15100
H2112       H  0.53214113  0.32235484  0.89572637     0.15100
H2113       H  0.87669951  0.34909877  0.53620431     0.13400
H2114       H  0.87532179  0.34838372  0.97471132     0.13400
H2115       H  0.62610402  0.35350819  0.53413753     0.13400
H2116       H  0.62417037  0.35291823  0.97308118     0.13400
H2117       H  0.00110452  0.37580532  0.53226597     0.26600
H2118       H  0.99957588  0.37592019  0.97744003     0.26600
C2119       C  0.62100662  0.13728925  0.62459973     0.87000
C2120       C  0.59635146  0.15522629  0.60310373    -0.53300
C2121       C  0.57922688  0.13423722  0.58350047     0.09900
C2122       C  0.58840404  0.09716568  0.58732327     0.20800
C2123       C  0.59995509  0.11140115  0.64199340    -0.54000
C2124       C  0.58303227  0.09014069  0.62247764     0.10000
C2125       C  0.64363943  0.11681095  0.60215081    -0.53500
C2126       C  0.62643519  0.09563088  0.58266021     0.10600
H2127       H  0.59309814  0.18207530  0.60300296     0.15100
H2128       H  0.57437321  0.07999491  0.57135825     0.00800
H2129       H  0.59785142  0.11063004  0.66739438     0.15400
H2130       H  0.67060912  0.11812603  0.60238846     0.15200
N2131       N  0.94848101  0.50312633  0.62967613    -0.36100
N2132       N  0.99974501  0.45326548  0.63491686    -0.56700
N2133       N  0.55129266  0.50356343  0.62946092    -0.36100
N2134       N  0.99829065  0.05460035  0.63444256    -0.56700
C2135       C  0.93137936  0.47682206  0.64057602     0.27500
C2136       C  0.93026978  0.03030453  0.64182190     0.27500
C2137       C  0.56851694  0.47717542  0.63984323     0.27400
C2138       C  0.56777208  0.03301985  0.64091676     0.27400
C2139       C  0.97298754  0.43285064  0.63493151     0.36100
C2140       C  0.52659725  0.43306337  0.63480183     0.36100
C2141       C  0.97118688  0.07443240  0.63499839     0.36100
C2142       C  0.52463985  0.07542032  0.63471831     0.36100
C2143       C  0.90431991  0.48777186  0.65798722    -0.21400
C2144       C  0.90323631  0.02092736  0.65964788    -0.21400
C2145       C  0.59657527  0.48793001  0.65583279    -0.21400
C2146       C  0.59620369  0.02503188  0.65733769    -0.21400
C2147       C  0.98287185  0.40018461  0.63714107    -0.22500
C2148       C  0.51695299  0.40030024  0.63700498    -0.22500
C2149       C  0.98026109  0.10740732  0.63792800    -0.22500
C2150       C  0.51431299  0.10804845  0.63776564    -0.22500
C2151       C  0.93966583  0.44334764  0.63456154    -0.17800
C2152       C  0.93823778  0.06323079  0.63433654    -0.17800
C2153       C  0.55802176  0.06551405  0.63342563    -0.17800
C2154       C  0.55985438  0.44376203  0.63412286    -0.17800
H2155       H  0.88638929  0.47256567  0.67009206     0.15100
H2156       H  0.88509335  0.03716945  0.67086380     0.15100
H2157       H  0.61489507  0.47260698  0.66723744     0.15100
H2158       H  0.61417673  0.04218610  0.66749433     0.15100
H2159       H  0.96690765  0.37896465  0.64069156     0.13400
H2160       H  0.53309011  0.37920568  0.64044784     0.13400
H2161       H  0.96388408  0.12839117  0.64194972     0.13400
H2162       H  0.52989478  0.12968254  0.64151919     0.13400
H2163       H  0.96909540  0.50223081  0.61480467     0.26600
H2164       H  0.53003584  0.50268681  0.61548666     0.26600
N2165       N  0.63816347  0.44784929  0.50158036    -0.36100
N2166       N  0.64300969  0.01002221  0.55238482    -0.56700
N2167       N  0.63564166  0.05992653  0.50507315    -0.36100
N2168       N  0.63895806  0.00936380  0.95854127    -0.56700
C2169       C  0.64779625  0.43187120  0.52752801     0.27500
C2170       C  0.64594548  0.43182289  0.97674136     0.27500
C2171       C  0.64700397  0.07812517  0.52980336     0.27400
C2172       C  0.63977330  0.07778270  0.98345881     0.27400
C2173       C  0.64136269  0.47598187  0.56765082     0.36100
C2174       C  0.64344918  0.03730538  0.57146313     0.36100
C2175       C  0.64106459  0.47215058  0.93459293     0.36100
C2176       C  0.63608395  0.03646832  0.94064773     0.36100
C2177       C  0.66518995  0.40330818  0.51921642    -0.21400
C2178       C  0.66273488  0.40407803  0.98696266    -0.21400
C2179       C  0.66294625  0.10636516  0.51953488    -0.21400
C2180       C  0.65612511  0.10644058  0.99344726    -0.21400
C2181       C  0.64324364  0.48726116  0.59836381    -0.22500
C2182       C  0.64551391  0.02831964  0.60243528    -0.22500
C2183       C  0.64324560  0.48069207  0.90351839    -0.22500
C2184       C  0.63916618  0.02791396  0.90928176    -0.22500
C2185       C  0.64018812  0.44222231  0.55831973    -0.17800
C2186       C  0.64029802  0.43922309  0.94514894    -0.17800
C2187       C  0.63222249  0.06910788  0.95216090    -0.17800
C2188       C  0.64193807  0.07025870  0.56130650    -0.17800
H2189       H  0.67646321  0.38572035  0.53488262     0.15100
H2190       H  0.67487909  0.38516475  0.97253193     0.15100
H2191       H  0.67478492  0.12551471  0.53390405     0.15100
H2192       H  0.66635410  0.12569540  0.97890746     0.15100
H2193       H  0.64619068  0.47215784  0.61883081     0.13400
H2194       H  0.64866755  0.04486265  0.62257887     0.13400
H2195       H  0.64689818  0.46387712  0.88365402     0.13400
H2196       H  0.64114270  0.04476979  0.88997909     0.13400
H2197       H  0.62324275  0.46903110  0.50105188     0.26600
H2198       H  0.62120965  0.03843353  0.50607467     0.26600
N2199       N  0.99529828  0.14218696  0.55132585    -0.36100
N2200       N  0.94420409  0.14552761  0.50343758    -0.56700
N2201       N  0.99099279  0.13866031  0.95796994    -0.36100
N2202       N  0.54511819  0.14743901  0.50279728    -0.56700
C2203       C  0.96834387  0.15129972  0.56833518     0.27500
C2204       C  0.52219041  0.15219953  0.56791872     0.27500
C2205       C  0.96349495  0.14703598  0.94171806     0.27400
C2206       C  0.51738497  0.15113796  0.94242424     0.27400
C2207       C  0.92430498  0.14548913  0.52901552     0.36100
C2208       C  0.91979535  0.13635565  0.98053664     0.36100
C2209       C  0.56562003  0.14690397  0.52789199     0.36100
C2210       C  0.56068660  0.14585270  0.98258140     0.36100
C2211       C  0.97806110  0.16826340  0.59539119    -0.21400
C2212       C  0.51234363  0.16883903  0.59513008    -0.21400
C2213       C  0.97235902  0.16576521  0.91618675    -0.21400
C2214       C  0.50659049  0.16833580  0.91660966    -0.21400
C2215       C  0.89150834  0.14866416  0.52032271    -0.22500
C2216       C  0.88685620  0.13723953  0.98946664    -0.22500
C2217       C  0.59828108  0.14934382  0.51849082    -0.22500
C2218       C  0.59302265  0.14927810  0.99279604    -0.22500
C2219       C  0.93538010  0.14375418  0.56020864    -0.17800
C2220       C  0.55522538  0.14558544  0.55930418    -0.17800
C2221       C  0.55091159  0.14690611  0.95092484    -0.17800
C2222       C  0.93073443  0.13796622  0.94940922    -0.17800
H2223       H  0.96208949  0.17914380  0.61332561     0.15100
H2224       H  0.52819983  0.18027227  0.61282814     0.15100
H2225       H  0.95577907  0.17670347  0.89927426     0.15100
H2226       H  0.52186136  0.18156883  0.90006560     0.15100
H2227       H  0.87049747  0.15228637  0.53585559     0.13400
H2228       H  0.86569376  0.14173039  0.97453525     0.13400
H2229       H  0.61965815  0.15263084  0.53356547     0.13400
H2230       H  0.61441985  0.15514404  0.97858738     0.13400
H2231       H  0.99534363  0.12770004  0.53072868     0.26600
H2232       H  0.99177861  0.12340518  0.97740528     0.26600
C2233       C  0.87085012  0.13118159  0.62629712     0.84000
C2234       C  0.89411821  0.15066920  0.60451582    -0.53300
C2235       C  0.91234067  0.13088557  0.58465196     0.09900
C2236       C  0.90574202  0.09327724  0.58861174     0.20800
C2237       C  0.84944604  0.10910035  0.60390650    -0.54000
C2238       C  0.86788761  0.08899646  0.58421549     0.10000
C2239       C  0.89373948  0.10670262  0.64342906    -0.53500
C2240       C  0.91190085  0.08664301  0.62372060     0.10600
H2241       H  0.89567502  0.17767395  0.60443256     0.15100
H2242       H  0.92079760  0.07711246  0.57254460     0.00800
H2243       H  0.82245701  0.10867964  0.60429500     0.15400
H2244       H  0.89602630  0.10595987  0.66881094     0.15200
N2245       N  0.85412936  0.49868733  0.54953352    -0.36100
N2246       N  0.85816578  0.44408321  0.50232535    -0.56700
N2247       N  0.86051797  0.49640063  0.95680398    -0.36100
N2248       N  0.85896933  0.05197068  0.50628599    -0.56700
C2249       C  0.85688972  0.47232275  0.56858951     0.27500
C2250       C  0.85491751  0.02920526  0.57236091     0.27500
C2251       C  0.85546327  0.46882047  0.93859130     0.27400
C2252       C  0.85954480  0.01750340  0.93685845     0.27400
C2253       C  0.85003110  0.42731398  0.52831221     0.36100
C2254       C  0.84929668  0.42707635  0.97978423     0.36100
C2255       C  0.84847467  0.07066651  0.53104263     0.36100
C2256       C  0.84877904  0.05898845  0.97923744     0.36100
C2257       C  0.85837293  0.48372078  0.59933953    -0.21400
C2258       C  0.85585839  0.01986348  0.60325398    -0.21400
C2259       C  0.84830426  0.47806749  0.90833027    -0.21400
C2260       C  0.85451088  0.00805557  0.90586142    -0.21400
C2261       C  0.83562375  0.39715071  0.51994670    -0.22500
C2262       C  0.83462196  0.39784212  0.98923785    -0.22500
C2263       C  0.83336384  0.09934919  0.52093782    -0.22500
C2264       C  0.83041763  0.08669666  0.98830277    -0.22500
C2265       C  0.85751865  0.43825668  0.55920281    -0.17800
C2266       C  0.85411983  0.06260517  0.56249766    -0.17800
C2267       C  0.85871000  0.05079662  0.94817430    -0.17800
C2268       C  0.85604140  0.43551759  0.94850304    -0.17800
H2269       H  0.85739965  0.46858671  0.61994111     0.15100
H2270       H  0.85339567  0.03623484  0.62357623     0.15100
H2271       H  0.84127486  0.46171955  0.88892661     0.15100
H2272       H  0.84831084  0.02420612  0.88676221     0.15100
H2273       H  0.82595643  0.37860745  0.53559086     0.13400
H2274       H  0.82495161  0.37795154  0.97430453     0.13400
H2275       H  0.82196206  0.11872058  0.53537632     0.13400
H2276       H  0.82013233  0.10541004  0.97322915     0.13400
H2277       H  0.85123113  0.49754297  0.52549224     0.26600
H2278       H  0.86746323  0.49710726  0.98020207     0.26600
C2279       C  0.85423296  0.34252598  0.86377295    -0.16000
C2280       C  0.83331039  0.35334392  0.84182053    -0.31100
H2281       H  0.85965016  0.31606761  0.86495584     0.13100
H2282       H  0.82718017  0.37966780  0.84100856     0.13600
C2283       C  0.83735997  0.14062409  0.86883113    -0.16000
C2284       C  0.84598793  0.16621516  0.85074082    -0.31100
H2285       H  0.81124967  0.13407592  0.87094423     0.13100
H2286       H  0.87196751  0.17348646  0.84934340     0.13600
C2287       C  0.66595460  0.35882764  0.84008898    -0.16000
C2288       C  0.64386215  0.34681433  0.86054884    -0.31100
H2289       H  0.67193517  0.38522184  0.84063351     0.13100
H2290       H  0.63890087  0.32019401  0.86063187     0.13600
C2291       C  0.84989101  0.32311928  0.65245877    -0.16000
C2292       C  0.84911617  0.35603035  0.64679514    -0.31100
H2293       H  0.86865045  0.30727901  0.64170237     0.13100
H2294       H  0.83101169  0.37131373  0.65945628     0.13600
C2295       C  0.64793670  0.15653635  0.87203106    -0.16000
C2296       C  0.63954090  0.17868325  0.85048107    -0.31100
H2297       H  0.67424936  0.15205935  0.87605963     0.13100
H2298       H  0.61348026  0.18459313  0.84685754     0.13600
C2299       C  0.65342687  0.32797556  0.65124385    -0.16000
C2300       C  0.65354468  0.36061947  0.64507338    -0.31100
H2301       H  0.63447056  0.31164214  0.64155309     0.13100
H2302       H  0.67136303  0.37663697  0.65726287     0.13600
C2303       C  0.85163860  0.15374641  0.64871284    -0.16000
C2304       C  0.82933645  0.14186593  0.66908706    -0.31100
H2305       H  0.85696439  0.18030448  0.64897614     0.13100
H2306       H  0.82294344  0.11557333  0.66827847     0.13600
C2307       C  0.63914914  0.16072141  0.64661217    -0.16000
C2308       C  0.66138909  0.14951307  0.66724811    -0.31100
H2309       H  0.63300850  0.18706117  0.64638860     0.13100
H2310       H  0.66813158  0.12330137  0.66697186     0.13600
C2311       C  0.67894698  0.66787798  0.18616925     0.42900
N2312       N  0.70882778  0.68592424  0.22439868     0.01800
C2313       C  0.69893791  0.83622005  0.30506348    -0.06100
H2314       H  0.71350037  0.85232218  0.18669924     0.07300
C2315       C  0.82841436  0.79071094  0.19304927    -0.06400
Co2316     Co  0.68478070  0.75071557  0.25056200     0.74200
N2317       N  0.70871929  0.80793549  0.21395239    -0.25600
Co2318     Co  0.74531852  0.81173092  0.24882146     0.74100
C2319       C  0.81676234  0.82111687  0.17796809     0.43000
N2320       N  0.80470089  0.70881747  0.22126186     0.01400
N2321       N  0.78300721  0.80838910  0.21508503     0.01500
N2322       N  0.65958700  0.79591383  0.30241669    -0.46400
H2323       H  0.64550231  0.71459013  0.18836454     0.07300
N2324       N  0.68614940  0.78407374  0.21427481     0.01800
N2325       N  0.78222053  0.81433751  0.28340394     0.01600
C2326       C  0.81443892  0.83168594  0.32056670     0.43200
N2327       N  0.78155317  0.68596653  0.22553054    -0.25000
C2328       C  0.65780116  0.71392022  0.30682775    -0.06000
N2329       N  0.70474025  0.66017508  0.20479934    -0.46100
N2330       N  0.78684052  0.83909676  0.30409726    -0.46400
C2331       C  0.66687283  0.68504309  0.32445632     0.42900
N2332       N  0.68359518  0.79049142  0.28178700     0.01800
N2333       N  0.78277541  0.69460936  0.29292598    -0.25100
N2334       N  0.68689131  0.70978994  0.22005720    -0.25600
N2335       N  0.80669519  0.71689418  0.28972177     0.01500
H2336       H  0.77899834  0.65038254  0.32054784     0.07300
H2337       H  0.84940354  0.78651239  0.31361070     0.07400
N2338       N  0.70689520  0.81365877  0.28241763    -0.25600
N2339       N  0.80597463  0.78486551  0.21585492    -0.25200
N2340       N  0.70629130  0.69565029  0.29223629     0.01800
C2341       C  0.66996074  0.81591357  0.17768203     0.43200
C2342       C  0.78619119  0.66056457  0.20529432    -0.06500
N2343       N  0.80570194  0.79132654  0.28460642    -0.25200
H2344       H  0.85124198  0.77697736  0.18916943     0.07400
N2345       N  0.66217504  0.78831273  0.19347480    -0.46400
H2346       H  0.77136132  0.63810909  0.20379142     0.07400
C2347       C  0.82504520  0.68433675  0.32532945     0.43100
C2348       C  0.66682550  0.70070664  0.19630073    -0.06000
Co2349     Co  0.74485295  0.69012749  0.25936177     0.73800
N2350       N  0.82581172  0.69987567  0.19848331    -0.46200
C2351       C  0.66757709  0.82397983  0.31824779     0.43300
N2352       N  0.69703573  0.67442176  0.31404874    -0.46100
Co2353     Co  0.80651852  0.75048626  0.25261458     0.73900
C2354       C  0.82712678  0.80002875  0.30759159    -0.06500
C2355       C  0.70083327  0.82914943  0.19122286    -0.06000
N2356       N  0.68330603  0.71840228  0.28736049    -0.25600
N2357       N  0.78882368  0.83063230  0.19323966    -0.46300
H2358       H  0.71246660  0.85888850  0.31056289     0.07300
C2359       C  0.79194602  0.67316599  0.31515160    -0.06400
Cl2360     Cl  0.74549897  0.75080426  0.25291626    -0.49500
C2361       C  0.81503185  0.66980406  0.18725913     0.43100
H2362       H  0.63453244  0.72742922  0.30654388     0.07300
N2363       N  0.83245202  0.71132956  0.30831682    -0.46200
C2364       C  0.87420244  0.86888632  0.38413883     0.87000
C2365       C  0.89958991  0.85059040  0.40478436    -0.53300
C2366       C  0.91842445  0.87127801  0.42324124     0.09900
C2367       C  0.91024893  0.90848933  0.41924396     0.20800
C2368       C  0.85360395  0.89060356  0.40761284    -0.54000
C2369       C  0.87272097  0.91151517  0.42598248     0.10000
C2370       C  0.89508956  0.89393034  0.36539706    -0.53500
C2371       C  0.91382416  0.91487634  0.38381542     0.10600
H2372       H  0.90186669  0.82366087  0.40540284     0.15100
H2373       H  0.92575952  0.92535935  0.43422200     0.00800
H2374       H  0.82665543  0.89005939  0.40899722     0.15400
H2375       H  0.89563853  0.89443838  0.33992075     0.15200
C2376       C  0.86778233  0.61984622  0.37964816     0.87000
C2377       C  0.89092077  0.59693801  0.35957515    -0.53300
C2378       C  0.91253418  0.57858442  0.37708881     0.09900
C2379       C  0.90898908  0.58505712  0.41273229     0.20800
C2380       C  0.85062955  0.59625696  0.40275944    -0.54000
C2381       C  0.87209472  0.57814327  0.42017644     0.10000
C2382       C  0.89149924  0.64130192  0.40031259    -0.53500
C2383       C  0.91341750  0.62302268  0.41734841     0.10600
H2384       H  0.89017534  0.59536083  0.33410872     0.15100
H2385       H  0.92646807  0.57020381  0.42699464     0.00800
H2386       H  0.82383270  0.59399786  0.40515153     0.15400
H2387       H  0.89065657  0.66831747  0.40174916     0.15200
C2388       C  0.63021998  0.87986563  0.38362721     0.87000
C2389       C  0.64723985  0.90318731  0.40772240    -0.53300
C2390       C  0.62548894  0.92056956  0.42618197     0.09900
C2391       C  0.58864439  0.91318653  0.41875805     0.20800
C2392       C  0.60715732  0.85747537  0.40332516    -0.54000
C2393       C  0.58515855  0.87511050  0.42173807     0.10000
C2394       C  0.60670426  0.90246529  0.36500804    -0.53500
C2395       C  0.58489210  0.91995769  0.38340922     0.10600
H2396       H  0.67399053  0.90651556  0.40942862     0.15100
H2397       H  0.57100599  0.92766644  0.43383134     0.00800
H2398       H  0.60880701  0.83048993  0.40340273     0.15400
H2399       H  0.60710015  0.90419427  0.33959802     0.15200
C2400       C  0.62764536  0.62092726  0.37897156     0.87000
C2401       C  0.60520357  0.59744677  0.35894811    -0.53300
C2402       C  0.58378238  0.57896772  0.37643427     0.09900
C2403       C  0.58701650  0.58582601  0.41212827     0.20800
C2404       C  0.60341485  0.64222527  0.39928780    -0.54000
C2405       C  0.58174387  0.62371560  0.41635793     0.10000
C2406       C  0.64524143  0.59833315  0.40219632    -0.53500
C2407       C  0.62416023  0.58019607  0.41977009     0.10600
H2408       H  0.60604275  0.59582915  0.33347928     0.15100
H2409       H  0.56986345  0.57068708  0.42650145     0.00800
H2410       H  0.60390563  0.66925705  0.40064636     0.15400
H2411       H  0.67208969  0.59656302  0.40448677     0.15200
N2412       N  0.94600483  0.99992739  0.37340723    -0.36100
N2413       N  0.99834231  0.95056908  0.37020264    -0.56700
N2414       N  0.54862715  0.00245376  0.37325616    -0.36100
N2415       N  0.99824559  0.54510406  0.36239482    -0.56700
C2416       C  0.92860078  0.97214875  0.36552592     0.27500
C2417       C  0.92914590  0.52064202  0.36161279     0.27500
C2418       C  0.56664294  0.97554530  0.36419664     0.27400
C2419       C  0.56728248  0.52153370  0.35912340     0.27400
C2420       C  0.97209179  0.92959471  0.37060830     0.36100
C2421       C  0.52568976  0.93099744  0.37056407     0.36100
C2422       C  0.97122455  0.56515605  0.36168984     0.36100
C2423       C  0.52506765  0.56548866  0.36134165     0.36100
C2424       C  0.89917377  0.98090173  0.35112553    -0.21400
C2425       C  0.89961883  0.50897173  0.34902641    -0.21400
C2426       C  0.59471703  0.98551951  0.34813900    -0.21400
C2427       C  0.59535966  0.51027287  0.34346181    -0.21400
C2428       C  0.98272643  0.89698862  0.36887495    -0.22500
C2429       C  0.51684821  0.89788341  0.36887004    -0.22500
C2430       C  0.98084480  0.59774031  0.35776340    -0.22500
C2431       C  0.51510888  0.59795579  0.35749757    -0.22500
C2432       C  0.93854123  0.93929558  0.37171122    -0.17800
C2433       C  0.93794534  0.55449636  0.36439889    -0.17800
C2434       C  0.55843248  0.55512663  0.36337050    -0.17800
C2435       C  0.55863736  0.94248488  0.37120271    -0.17800
H2436       H  0.88038041  0.96419831  0.34167325     0.15100
H2437       H  0.88008570  0.52360399  0.33862231     0.15100
H2438       H  0.61368383  0.96967894  0.33769164     0.15100
H2439       H  0.61362169  0.52520201  0.33148399     0.15100
H2440       H  0.96728113  0.87514201  0.36591461     0.13400
H2441       H  0.53347625  0.87694133  0.36581108     0.13400
H2442       H  0.96467049  0.61874648  0.35396055     0.13400
H2443       H  0.53104966  0.61911632  0.35350589     0.13400
H2444       H  0.96817576  0.00087099  0.38597201     0.26600
H2445       H  0.52724619  0.00237818  0.38708042     0.26600
C2446       C  0.87777971  0.85768211  0.11624164     0.87000
C2447       C  0.89765597  0.88335658  0.13611343    -0.53300
C2448       C  0.91496727  0.90558193  0.11875805     0.09900
C2449       C  0.91084315  0.90006036  0.08295419     0.20800
C2450       C  0.85559699  0.87865113  0.09446958    -0.54000
C2451       C  0.87288452  0.90106035  0.07706738     0.10000
C2452       C  0.90388047  0.84125521  0.09407644    -0.53500
C2453       C  0.92134691  0.86346536  0.07659806     0.10600
H2454       H  0.89879006  0.88324700  0.16158836     0.15100
H2455       H  0.92503276  0.91819280  0.06884374     0.00800
H2456       H  0.82870165  0.87649729  0.09350241     0.15400
H2457       H  0.90788310  0.81455015  0.09211852     0.15200
C2458       C  0.63194448  0.87712611  0.11914736     0.87000
C2459       C  0.60714502  0.89841459  0.13871555    -0.53300
C2460       C  0.58610200  0.91677304  0.12090689     0.09900
C2461       C  0.59178771  0.91188070  0.08521895     0.20800
C2462       C  0.61027078  0.85568068  0.09658354    -0.54000
C2463       C  0.58902969  0.87399538  0.07889106     0.10000
C2464       C  0.64982490  0.90194160  0.09791031    -0.53500
C2465       C  0.62885647  0.91995961  0.07997465     0.10600
H2466       H  0.60613463  0.89865655  0.16419875     0.15100
H2467       H  0.57469686  0.92683359  0.07064340     0.00800
H2468       H  0.61205698  0.82875148  0.09435131     0.15400
H2469       H  0.67660895  0.90540757  0.09742708     0.15200
N2470       N  0.00710399  0.86009467  0.04468014    -0.36100
N2471       N  0.95840685  0.85486975  0.99577900    -0.56700
N2472       N  0.00266543  0.86296238  0.45490251    -0.36100
N2473       N  0.55931120  0.85911342  0.99644124    -0.56700
C2474       C  0.98033660  0.84924375  0.06083570     0.27500
C2475       C  0.53430958  0.85141267  0.06112424     0.27500
C2476       C  0.97556075  0.85296220  0.43858688     0.27400
C2477       C  0.52951665  0.85328656  0.43789700     0.27400
C2478       C  0.93744281  0.85263291  0.02049646     0.36100
C2479       C  0.93209340  0.85874704  0.47882346     0.36100
C2480       C  0.57869446  0.86059223  0.02233371     0.36100
C2481       C  0.57340757  0.86075951  0.47725914     0.36100
C2482       C  0.99068706  0.83251660  0.08707948    -0.21400
C2483       C  0.52496579  0.83401011  0.08733870    -0.21400
C2484       C  0.98517147  0.83582175  0.41154793    -0.21400
C2485       C  0.51950761  0.83605798  0.41108801    -0.21400
C2486       C  0.90547305  0.84686283  0.01028231    -0.22500
C2487       C  0.89967454  0.85381042  0.48804837    -0.22500
C2488       C  0.61175325  0.86192116  0.01388446    -0.22500
C2489       C  0.60625446  0.85999762  0.48630673    -0.22500
C2490       C  0.94694903  0.85413542  0.05221129    -0.17800
C2491       C  0.56718493  0.85999571  0.05355626    -0.17800
C2492       C  0.56265593  0.86052033  0.44585154    -0.17800
C2493       C  0.94253686  0.85973862  0.44734322    -0.17800
H2494       H  0.97514239  0.82016868  0.10400079     0.15100
H2495       H  0.54125145  0.82330790  0.10463450     0.15100
H2496       H  0.96909187  0.82425087  0.39410291     0.15100
H2497       H  0.53534065  0.82482702  0.39321707     0.15100
H2498       H  0.88431645  0.84074048  0.02468549     0.13400
H2499       H  0.87882607  0.84804490  0.47290118     0.13400
H2500       H  0.63285054  0.86033981  0.02944507     0.13400
H2501       H  0.62762437  0.85691768  0.47111434     0.13400
H2502       H  0.00686625  0.87469974  0.02477992     0.26600
H2503       H  0.00272915  0.87771860  0.47531585     0.26600
C2504       C  0.62311617  0.63212136  0.12029458     0.87000
C2505       C  0.59900908  0.65071783  0.09871329    -0.53300
C2506       C  0.58080170  0.63019147  0.07960785     0.09900
C2507       C  0.58834449  0.59290555  0.08390714     0.20800
C2508       C  0.60115115  0.60749613  0.13828840    -0.54000
C2509       C  0.58304197  0.58673608  0.11925707     0.10000
C2510       C  0.64459264  0.61028038  0.09787291    -0.53500
C2511       C  0.62619791  0.58973970  0.07865574     0.10600
H2512       H  0.59691051  0.67766655  0.09816491     0.15100
H2513       H  0.57336573  0.57614155  0.06834902     0.00800
H2514       H  0.59939127  0.60715338  0.16373051     0.15400
H2515       H  0.67159116  0.61045666  0.09776457     0.15200
N2516       N  0.94383221  0.99086841  0.13176949    -0.36100
N2517       N  0.99819004  0.94378489  0.13434911    -0.56700
N2518       N  0.54634110  0.99771966  0.13250622    -0.36100
N2519       N  0.99753595  0.55345614  0.13380220    -0.56700
C2520       C  0.92822295  0.96265045  0.14014234     0.27500
C2521       C  0.92885861  0.53050272  0.14201171     0.27500
C2522       C  0.56491909  0.97168712  0.14175113     0.27400
C2523       C  0.56657542  0.53042213  0.13865490     0.27400
C2524       C  0.97278184  0.92179028  0.13344253     0.36100
C2525       C  0.52624612  0.92528589  0.13403023     0.36100
C2526       C  0.97079905  0.57378708  0.13437782     0.36100
C2527       C  0.52431258  0.57369477  0.13269039     0.36100
C2528       C  0.89976842  0.97032245  0.15703594    -0.21400
C2529       C  0.90110405  0.52171396  0.15913410    -0.21400
C2530       C  0.59135434  0.98296481  0.15977349    -0.21400
C2531       C  0.59524498  0.52193463  0.15445505    -0.21400
C2532       C  0.98456897  0.88967395  0.13502094    -0.22500
C2533       C  0.51865502  0.89190119  0.13540365    -0.22500
C2534       C  0.98060080  0.60663923  0.13603819    -0.22500
C2535       C  0.51468549  0.60657948  0.13495806    -0.22500
C2536       C  0.93899951  0.93033604  0.13226023    -0.17800
C2537       C  0.93757321  0.56321588  0.13428417    -0.17800
C2538       C  0.55747835  0.56301008  0.13090712    -0.17800
C2539       C  0.55865596  0.93816360  0.13376006    -0.17800
H2540       H  0.88255212  0.95297202  0.16738962     0.15100
H2541       H  0.88297638  0.53837228  0.16981977     0.15100
H2542       H  0.61009136  0.96796185  0.17096168     0.15100
H2543       H  0.61393352  0.53874111  0.16392145     0.15100
H2544       H  0.96990179  0.86734399  0.13754883     0.13400
H2545       H  0.53600185  0.87166515  0.13834066     0.13400
H2546       H  0.96471811  0.62808744  0.13959209     0.13400
H2547       H  0.53079385  0.62798016  0.13762109     0.13400
H2548       H  0.96501950  0.99248641  0.11776475     0.26600
H2549       H  0.52572645  0.99658776  0.11768754     0.26600
N2550       N  0.63831938  0.95685900  0.00324734    -0.36100
N2551       N  0.63912871  0.50331290  0.04853794    -0.56700
N2552       N  0.63612377  0.55293313  0.00019368    -0.36100
N2553       N  0.63989658  0.49637872  0.45308201    -0.56700
C2554       C  0.64890237  0.93974506  0.02818195     0.27500
C2555       C  0.64406944  0.93957750  0.47945462     0.27500
C2556       C  0.64607732  0.57149140  0.02532060     0.27400
C2557       C  0.64476496  0.56636511  0.47319349     0.27400
C2558       C  0.63862285  0.97995934  0.07097940     0.36100
C2559       C  0.64064533  0.53083768  0.06725274     0.36100
C2560       C  0.63555934  0.98021325  0.43853841     0.36100
C2561       C  0.63795820  0.52214189  0.43341251     0.36100
C2562       C  0.66877405  0.91341649  0.01834532    -0.21400
C2563       C  0.66224746  0.91205219  0.48806613    -0.21400
C2564       C  0.66218943  0.59979728  0.01540093    -0.21400
C2565       C  0.66205227  0.59524680  0.48074698    -0.21400
C2566       C  0.63812844  0.98868546  0.10241505    -0.22500
C2567       C  0.64316260  0.52224817  0.09830024    -0.22500
C2568       C  0.63791626  0.98912214  0.40760557    -0.22500
C2569       C  0.64024295  0.51108783  0.40264839    -0.22500
C2570       C  0.64000358  0.94711381  0.05934288    -0.17800
C2571       C  0.63572797  0.94735328  0.44863571    -0.17800
C2572       C  0.63589514  0.55568852  0.44280317    -0.17800
C2573       C  0.64012391  0.56372916  0.05685054    -0.17800
H2574       H  0.68129158  0.89566583  0.03299523     0.15100
H2575       H  0.67364107  0.89356245  0.47263236     0.15100
H2576       H  0.67346050  0.61905135  0.03006035     0.15100
H2577       H  0.67242813  0.61296345  0.46465438     0.15100
H2578       H  0.64077625  0.97206535  0.12182288     0.13400
H2579       H  0.64737226  0.53895407  0.11814673     0.13400
H2580       H  0.64216886  0.97262530  0.38764205     0.13400
H2581       H  0.64276636  0.52634045  0.38222576     0.13400
H2582       H  0.62177472  0.97684401  0.00384620     0.26600
H2583       H  0.62204986  0.53118130  0.00064194     0.26600
N2584       N  0.99738446  0.63765099  0.04763897    -0.36100
N2585       N  0.94659413  0.64175326  0.99990117    -0.56700
N2586       N  0.99778799  0.63501521  0.44889502    -0.36100
N2587       N  0.54749602  0.64292671  0.99873156    -0.56700
C2588       C  0.97044248  0.64706589  0.06452665     0.27500
C2589       C  0.52421993  0.64853324  0.06383558     0.27500
C2590       C  0.97060893  0.64292025  0.43192144     0.27400
C2591       C  0.52471449  0.64325597  0.43165357     0.27400
C2592       C  0.92656872  0.64209851  0.02538104     0.36100
C2593       C  0.92712669  0.64022687  0.47230546     0.36100
C2594       C  0.56781977  0.64306149  0.02396302     0.36100
C2595       C  0.56884827  0.64050517  0.47146241     0.36100
C2596       C  0.98008679  0.66514620  0.09096980    -0.21400
C2597       C  0.51436486  0.66604403  0.09055428    -0.21400
C2598       C  0.98025041  0.65723485  0.40416328    -0.21400
C2599       C  0.51463168  0.65736424  0.40394890    -0.21400
C2600       C  0.89394444  0.64667334  0.01672779    -0.22500
C2601       C  0.89449749  0.64329525  0.48181548    -0.22500
C2602       C  0.60052637  0.64552417  0.01471458    -0.22500
C2603       C  0.60170024  0.64285377  0.48047642    -0.22500
C2604       C  0.93751982  0.63946424  0.05645101    -0.17800
C2605       C  0.55724948  0.64205572  0.05533573    -0.17800
C2606       C  0.55803920  0.63773896  0.44017285    -0.17800
C2607       C  0.93741781  0.63723491  0.44085789    -0.17800
H2608       H  0.96409076  0.67673034  0.10849537     0.15100
H2609       H  0.53023188  0.67829680  0.10776754     0.15100
H2610       H  0.96413584  0.66706358  0.38626581     0.15100
H2611       H  0.53045095  0.66731744  0.38584923     0.15100
H2612       H  0.87302555  0.65087855  0.03224392     0.13400
H2613       H  0.87307950  0.64636956  0.46687893     0.13400
H2614       H  0.62179502  0.64917555  0.02986783     0.13400
H2615       H  0.62297562  0.64547133  0.46523282     0.13400
H2616       H  0.99751502  0.62260222  0.02738066     0.26600
H2617       H  0.99799291  0.62257195  0.47006512     0.26600
C2618       C  0.87224792  0.63248595  0.12238166     0.84000
C2619       C  0.89608043  0.64978881  0.09969591    -0.53300
C2620       C  0.91379147  0.62836481  0.08106093     0.09900
C2621       C  0.90594621  0.59123825  0.08685496     0.20800
C2622       C  0.85014954  0.60971939  0.10110794    -0.54000
C2623       C  0.86793001  0.58783400  0.08251152     0.10000
C2624       C  0.89430930  0.60836652  0.14090361    -0.53500
C2625       C  0.91180906  0.58653633  0.12234570     0.10600
H2626       H  0.89852559  0.67665012  0.09821581     0.15100
H2627       H  0.92057648  0.57375978  0.07168283     0.00800
H2628       H  0.82316443  0.61044304  0.10122796     0.15400
H2629       H  0.89660022  0.60916306  0.16631665     0.15200
N2630       N  0.84918422  0.98686813  0.04983769    -0.36100
N2631       N  0.86141815  0.93676779  0.99989202    -0.56700
N2632       N  0.86319189  0.99824959  0.45786088    -0.36100
N2633       N  0.85776524  0.55024766  0.00473001    -0.56700
C2634       C  0.85365837  0.95942475  0.06730432     0.27500
C2635       C  0.85271790  0.52812403  0.07119858     0.27500
C2636       C  0.85958255  0.97075302  0.43919543     0.27400
C2637       C  0.85895988  0.51950072  0.43446378     0.27400
C2638       C  0.85261999  0.91738883  0.02401088     0.36100
C2639       C  0.85335840  0.92865921  0.48006042     0.36100
C2640       C  0.84793315  0.56947434  0.02941734     0.36100
C2641       C  0.85390429  0.56439983  0.47463601     0.36100
C2642       C  0.85362163  0.96872471  0.09864606    -0.21400
C2643       C  0.85367830  0.51904026  0.10217172    -0.21400
C2644       C  0.85335498  0.98016997  0.40882153    -0.21400
C2645       C  0.85098067  0.50848453  0.40446401    -0.21400
C2646       C  0.84062386  0.88720439  0.01273610    -0.22500
C2647       C  0.83925916  0.89912115  0.48940544    -0.22500
C2648       C  0.83439337  0.59883807  0.01909402    -0.22500
C2649       C  0.83730403  0.59356548  0.48250251    -0.22500
C2650       C  0.85728333  0.92616130  0.05591664    -0.17800
C2651       C  0.85323983  0.56150349  0.06102120    -0.17800
C2652       C  0.86153723  0.55334766  0.44382908    -0.17800
C2653       C  0.86002424  0.93736069  0.44882723    -0.17800
H2654       H  0.85344810  0.95209377  0.11819421     0.15100
H2655       H  0.85191244  0.53569568  0.12233949     0.15100
H2656       H  0.84728110  0.96388751  0.38908916     0.15100
H2657       H  0.84488865  0.52376791  0.38469622     0.15100
H2658       H  0.83116235  0.86687205  0.02641483     0.13400
H2659       H  0.82994043  0.87911922  0.47441125     0.13400
H2660       H  0.82378211  0.61876836  0.03339676     0.13400
H2661       H  0.82667173  0.61125607  0.46656612     0.13400
H2662       H  0.84681267  0.98733916  0.02567245     0.26600
H2663       H  0.86904032  0.99903004  0.48140934     0.26600
C2664       C  0.85447510  0.84489811  0.36325192    -0.16000
C2665       C  0.83050877  0.85486577  0.34356566    -0.31100
H2666       H  0.86101127  0.81864392  0.36343860     0.13100
H2667       H  0.82291008  0.88083086  0.34392911     0.13600
C2668       C  0.84238040  0.63957886  0.36115320    -0.16000
C2669       C  0.85035072  0.66554328  0.34319495    -0.31100
H2670       H  0.81631824  0.63288008  0.36340091     0.13100
H2671       H  0.87614077  0.67340311  0.34167787     0.13600
C2672       C  0.64466070  0.84009487  0.34064327    -0.16000
C2673       C  0.65488500  0.86172634  0.36282665    -0.31100
H2674       H  0.61845723  0.83360494  0.33908604     0.13100
H2675       H  0.68126233  0.86715153  0.36523132     0.13600
C2676       C  0.83453043  0.84321834  0.15606678    -0.16000
C2677       C  0.85896029  0.83306887  0.13642154    -0.31100
H2678       H  0.82701174  0.86921326  0.15609328     0.13100
H2679       H  0.86589431  0.80691727  0.13538610     0.13600
C2680       C  0.65244701  0.64057906  0.36043735    -0.16000
C2681       C  0.64297074  0.66553593  0.34242615    -0.31100
H2682       H  0.67879268  0.63488937  0.36246159     0.13100
H2683       H  0.61683598  0.67228056  0.34120733     0.13600
C2684       C  0.64639287  0.83294921  0.15705279    -0.16000
C2685       C  0.65610590  0.85782288  0.13875805    -0.31100
H2686       H  0.62053706  0.82506911  0.15702220     0.13100
H2687       H  0.68226423  0.86458872  0.13807353     0.13600
C2688       C  0.85391197  0.65724483  0.14343138    -0.16000
C2689       C  0.83196395  0.64709392  0.16476928    -0.31100
H2690       H  0.85940841  0.68366589  0.14184839     0.13100
H2691       H  0.82568801  0.62079228  0.16556176     0.13600
C2692       C  0.64216879  0.65554231  0.14169947    -0.16000
C2693       C  0.66398103  0.64475243  0.16294071    -0.31100
H2694       H  0.63687806  0.68202156  0.14057595     0.13100
H2695       H  0.67026231  0.61846357  0.16373975     0.13600
C2696       C  0.68105099  0.66717209  0.68408331     0.42900
N2697       N  0.70973341  0.68378109  0.72366023     0.01800
C2698       C  0.70602491  0.83910906  0.79759285    -0.06100
H2699       H  0.71888604  0.84943419  0.68133483     0.07300
C2700       C  0.83343518  0.77736920  0.68876643    -0.06400
Co2701     Co  0.68830876  0.75056655  0.74824109     0.74200
N2702       N  0.71410733  0.80498242  0.70844215    -0.25600
Co2703     Co  0.75159272  0.80866422  0.74252814     0.74100
C2704       C  0.82546590  0.80724240  0.67175336     0.43000
N2705       N  0.80619023  0.70221935  0.71999808     0.01400
N2706       N  0.78948766  0.80108228  0.70866454     0.01500
N2707       N  0.66548378  0.80006302  0.79782145    -0.46400
H2708       H  0.64928864  0.71508099  0.68531568     0.07300
N2709       N  0.69034077  0.78239270  0.71037448     0.01800
N2710       N  0.78875481  0.81121863  0.77674455     0.01600
C2711       C  0.82234680  0.82894970  0.81251843     0.43200
N2712       N  0.78251793  0.68006596  0.72461243    -0.25000
C2713       C  0.66223192  0.71855053  0.80864504    -0.06000
N2714       N  0.70585475  0.65852477  0.70347328    -0.46100
N2715       N  0.79497168  0.83688286  0.79597648    -0.46400
C2716       C  0.67060996  0.68996448  0.82730609     0.42900
N2717       N  0.68929226  0.79213308  0.77763292     0.01800
N2718       N  0.78383326  0.69185440  0.79189380    -0.25100
N2719       N  0.68865896  0.70834994  0.71892983    -0.25600
N2720       N  0.80821402  0.71343520  0.78791842     0.01500
H2721       H  0.77865798  0.64968942  0.82204415     0.07300
H2722       H  0.85455628  0.78146970  0.80793701     0.07400
N2723       N  0.71332819  0.81453625  0.77651143    -0.25600
N2724       N  0.81034904  0.77588294  0.71136364    -0.25200
N2725       N  0.70779243  0.69570156  0.79152216     0.01800
C2726       C  0.67313053  0.81532163  0.67479414     0.43200
C2727       C  0.78672635  0.65429259  0.70451589    -0.06500
N2728       N  0.81081999  0.78701315  0.77920031    -0.25200
H2729       H  0.85488861  0.76124924  0.68644150     0.07400
N2730       N  0.66519965  0.78809677  0.69115644    -0.46400
H2731       H  0.77131019  0.63224231  0.70295908     0.07400
C2732       C  0.82532618  0.68304561  0.82538980     0.43100
C2733       C  0.66932524  0.70011973  0.69434714    -0.06000
Co2734     Co  0.74583459  0.68729808  0.75845908     0.73800
N2735       N  0.82684274  0.69293927  0.69708199    -0.46200
C2736       C  0.67419630  0.82907241  0.81170070     0.43300
N2737       N  0.69896792  0.67658982  0.81522664    -0.46100
Co2738     Co  0.80937842  0.74462913  0.74953472     0.73900
C2739       C  0.83301770  0.79586516  0.80140013    -0.06500
C2740       C  0.70573345  0.82661034  0.68616434    -0.06000
N2741       N  0.68617021  0.71982970  0.78685096    -0.25600
N2742       N  0.79810348  0.82101707  0.68548993    -0.46300
H2743       H  0.72018388  0.86174534  0.80138958     0.07300
C2744       C  0.79223108  0.67169448  0.81538272    -0.06400
Cl2745     Cl  0.74881985  0.74787981  0.74980306    -0.49500
C2746       C  0.81567974  0.66307329  0.68610271     0.43100
H2747       H  0.64031708  0.73415623  0.80970045     0.07300
N2748       N  0.83357755  0.70866517  0.80708127    -0.46200
C2749       C  0.88299283  0.86587891  0.87519780     0.87000
C2750       C  0.90884533  0.84742954  0.89511801    -0.53300
C2751       C  0.92637847  0.86775080  0.91498646     0.09900
C2752       C  0.91644527  0.90476560  0.91315934     0.20800
C2753       C  0.86098073  0.88503382  0.89937397    -0.54000
C2754       C  0.87862818  0.90558950  0.91924602     0.10000
C2755       C  0.90304583  0.89305300  0.85831587    -0.53500
C2756       C  0.92054845  0.91355243  0.87830823     0.10600
H2757       H  0.91234659  0.82060324  0.89426523     0.15100
H2758       H  0.93082389  0.92132327  0.92942026     0.00800
H2759       H  0.83405552  0.88321250  0.90009299     0.15400
H2760       H  0.90407968  0.89520179  0.83296592     0.15200
C2761       C  0.86626824  0.62211467  0.88310594     0.87000
C2762       C  0.88894891  0.59855186  0.86339544    -0.53300
C2763       C  0.91061445  0.58065859  0.88112109     0.09900
C2764       C  0.90754643  0.58815641  0.91666288     0.20800
C2765       C  0.84913128  0.59946461  0.90691274    -0.54000
C2766       C  0.87061241  0.58169756  0.92455188     0.10000
C2767       C  0.89030589  0.64409852  0.90290184    -0.53500
C2768       C  0.91230646  0.62624927  0.92020239     0.10600
H2769       H  0.88800938  0.59635620  0.83795868     0.15100
H2770       H  0.92507601  0.57358325  0.93112241     0.00800
H2771       H  0.82233315  0.59726228  0.90936054     0.15400
H2772       H  0.88956312  0.67113529  0.90362299     0.15200
C2773       C  0.63751400  0.88576278  0.87806730     0.87000
C2774       C  0.65488309  0.90786486  0.90312104    -0.53300
C2775       C  0.63338907  0.92409342  0.92287017     0.09900
C2776       C  0.59645488  0.91706603  0.91551651     0.20800
C2777       C  0.61472073  0.86230415  0.89704087    -0.54000
C2778       C  0.59305282  0.87885131  0.91671372     0.10000
C2779       C  0.61356395  0.90936235  0.86103069    -0.53500
C2780       C  0.59202325  0.92583562  0.88061629     0.10600
H2781       H  0.68164483  0.91120195  0.90454840     0.15100
H2782       H  0.57900992  0.93064581  0.93150798     0.00800
H2783       H  0.61621152  0.83531956  0.89560569     0.15400
H2784       H  0.61327301  0.91224395  0.83573919     0.15200
C2785       C  0.62487621  0.62433167  0.87828868     0.87000
C2786       C  0.60208372  0.59958230  0.86022382    -0.53300
C2787       C  0.58210760  0.58124162  0.87913346     0.09900
C2788       C  0.58695970  0.58915968  0.91442234     0.20800
C2789       C  0.60076662  0.64559431  0.89913516    -0.54000
C2790       C  0.58072747  0.62698209  0.91788771     0.10000
C2791       C  0.64422686  0.60285306  0.90162776    -0.53500
C2792       C  0.62453839  0.58439092  0.92059348     0.10600
H2793       H  0.60140646  0.59723239  0.83477822     0.15100
H2794       H  0.57086202  0.57403116  0.92983336     0.00800
H2795       H  0.59986160  0.67255463  0.90001547     0.15400
H2796       H  0.67119762  0.60164854  0.90244498     0.15200
N2797       N  0.94928291  0.00058620  0.87124623    -0.36100
N2798       N  0.00397221  0.95369783  0.86891931    -0.56700
N2799       N  0.55177588  0.00762132  0.87247747    -0.36100
N2800       N  0.99623657  0.54729784  0.86667690    -0.56700
C2801       C  0.93321018  0.97219637  0.86277873     0.27500
C2802       C  0.92702197  0.52298659  0.86433992     0.27500
C2803       C  0.57128110  0.98172049  0.86349736     0.27400
C2804       C  0.56523147  0.52371908  0.86258101     0.27400
C2805       C  0.97861806  0.93160801  0.86778872     0.36100
C2806       C  0.53219390  0.93537080  0.86873278     0.36100
C2807       C  0.96926385  0.56738037  0.86636966     0.36100
C2808       C  0.52295088  0.56766241  0.86617276     0.36100
C2809       C  0.90347211  0.97984383  0.84837248    -0.21400
C2810       C  0.89718557  0.51190440  0.85188329    -0.21400
C2811       C  0.59907738  0.99329546  0.84798330    -0.21400
C2812       C  0.59369636  0.51305003  0.84720809    -0.21400
C2813       C  0.99070950  0.89963620  0.86451063    -0.22500
C2814       C  0.52479216  0.90204895  0.86516023    -0.22500
C2815       C  0.97888946  0.60008345  0.86328274    -0.22500
C2816       C  0.51302505  0.60025974  0.86315400    -0.22500
C2817       C  0.94459353  0.93970402  0.86830364    -0.17800
C2818       C  0.93599812  0.55666638  0.86847671    -0.17800
C2819       C  0.55628575  0.55717090  0.86763256    -0.17800
C2820       C  0.56469063  0.94815402  0.86987571    -0.17800
H2821       H  0.88556410  0.96248504  0.83843165     0.15100
H2822       H  0.87746730  0.52699670  0.84239899     0.15100
H2823       H  0.61893997  0.97855847  0.83761523     0.15100
H2824       H  0.61210199  0.52840528  0.83592358     0.15100
H2825       H  0.97628442  0.87737771  0.85991101     0.13400
H2826       H  0.54232870  0.88207417  0.86096891     0.13400
H2827       H  0.96272238  0.62117700  0.85984939     0.13400
H2828       H  0.52898157  0.62146016  0.85945026     0.13400
H2829       H  0.97131756  0.00238066  0.88395308     0.26600
H2830       H  0.53022252  0.00642568  0.88598608     0.26600
C2831       C  0.87345821  0.87497741  0.62497084     0.87000
C2832       C  0.89576415  0.89949830  0.64389893    -0.53300
C2833       C  0.91535338  0.91903710  0.62570784     0.09900
C2834       C  0.91064244  0.91239470  0.59017189     0.20800
C2835       C  0.85369793  0.89686443  0.60244328    -0.54000
C2836       C  0.87293626  0.91640862  0.58418414     0.10000
C2837       C  0.89812577  0.85503089  0.60342367    -0.53500
C2838       C  0.91780347  0.87487791  0.58529651     0.10600
H2839       H  0.89636556  0.90087321  0.66938834     0.15100
H2840       H  0.92632070  0.92854796  0.57532216     0.00800
H2841       H  0.82670153  0.89739403  0.60149893     0.15400
H2842       H  0.89985897  0.82812471  0.60196115     0.15200
C2843       C  0.63179474  0.88124330  0.62206197     0.87000
C2844       C  0.60821417  0.90313834  0.64261079    -0.53300
C2845       C  0.58695788  0.92226011  0.62550584     0.09900
C2846       C  0.59131585  0.91746759  0.58969411     0.20800
C2847       C  0.60861757  0.86067428  0.60010955    -0.54000
C2848       C  0.58705166  0.87967438  0.58340893     0.10000
C2849       C  0.64946874  0.90579658  0.60044278    -0.53500
C2850       C  0.62844665  0.92466683  0.58345471     0.10600
H2851       H  0.60833539  0.90342237  0.66810171     0.15100
H2852       H  0.57418759  0.93299774  0.57570570     0.00800
H2853       H  0.60944323  0.83370973  0.59773249     0.15400
H2854       H  0.67631723  0.90817437  0.59868598     0.15200
N2855       N  0.00264247  0.86753240  0.55200522    -0.36100
N2856       N  0.95221141  0.86101937  0.50417156    -0.56700
N2857       N  0.01010501  0.86155938  0.94779465    -0.36100
N2858       N  0.55326867  0.86133997  0.50273566    -0.56700
C2859       C  0.97602213  0.85811406  0.56922195     0.27500
C2860       C  0.53011864  0.85951296  0.56838141     0.27500
C2861       C  0.98387743  0.85092533  0.93056322     0.27400
C2862       C  0.53777386  0.85420425  0.93097735     0.27400
C2863       C  0.93198651  0.86003049  0.52953199     0.36100
C2864       C  0.93909898  0.85305944  0.96990741     0.36100
C2865       C  0.57361214  0.86340981  0.52793775     0.36100
C2866       C  0.58014372  0.86201824  0.97164964     0.36100
C2867       C  0.98672751  0.84286018  0.59614319    -0.21400
C2868       C  0.52103861  0.84381006  0.59561992    -0.21400
C2869       C  0.99492036  0.83567936  0.90302927    -0.21400
C2870       C  0.52921152  0.83776951  0.90329972    -0.21400
C2871       C  0.89959833  0.85462070  0.52030292    -0.22500
C2872       C  0.90651323  0.84716412  0.97807997    -0.22500
C2873       C  0.60638424  0.86159704  0.51853246    -0.22500
C2874       C  0.61266434  0.86287722  0.98167083    -0.22500
C2875       C  0.94240236  0.86272245  0.56099335    -0.17800
C2876       C  0.56313123  0.86619990  0.55941439    -0.17800
C2877       C  0.57032079  0.86283964  0.93995646    -0.17800
C2878       C  0.95035789  0.85571584  0.93884929    -0.17800
H2879       H  0.97134655  0.83163546  0.61389052     0.15100
H2880       H  0.53753208  0.83347397  0.61294333     0.15100
H2881       H  0.97981472  0.82425412  0.88473558     0.15100
H2882       H  0.54594805  0.82834324  0.88527270     0.15100
H2883       H  0.87866586  0.84965698  0.53541546     0.13400
H2884       H  0.88625046  0.84151791  0.96220323     0.13400
H2885       H  0.62790014  0.85981121  0.53355076     0.13400
H2886       H  0.63457277  0.86218060  0.96697733     0.13400
H2887       H  0.00218129  0.88070784  0.53122742     0.26600
H2888       H  0.00895517  0.87531612  0.96878483     0.26600
C2889       C  0.62560222  0.63236114  0.61763311     0.87000
C2890       C  0.60100804  0.65067921  0.59630249    -0.53300
C2891       C  0.58235539  0.62992906  0.57778232     0.09900
C2892       C  0.59020405  0.59263968  0.58230642     0.20800
C2893       C  0.60404378  0.60791250  0.63626464    -0.54000
C2894       C  0.58562153  0.58692496  0.61777599     0.10000
C2895       C  0.64668886  0.61025001  0.59512772    -0.53500
C2896       C  0.62801384  0.58922728  0.57665706     0.10600
H2897       H  0.59895058  0.67761466  0.59546527     0.15100
H2898       H  0.57498252  0.57564053  0.56719744     0.00800
H2899       H  0.60272730  0.60790003  0.66173750     0.15400
H2900       H  0.67368570  0.61038599  0.59465041     0.15200
N2901       N  0.94796339  0.00311539  0.63278397    -0.36100
N2902       N  0.00066614  0.95377647  0.63955366    -0.56700
N2903       N  0.55082519  0.00495168  0.63314799    -0.36100
N2904       N  0.00021106  0.55392352  0.63192237    -0.56700
C2905       C  0.93156585  0.97640299  0.64369748     0.27500
C2906       C  0.93176876  0.53075124  0.63901799     0.27500
C2907       C  0.56893041  0.97907186  0.64354579     0.27400
C2908       C  0.56880304  0.53106791  0.63776770     0.27400
C2909       C  0.97417493  0.93305494  0.63993978     0.36100
C2910       C  0.52788861  0.93401143  0.64047714     0.36100
C2911       C  0.97342147  0.57409572  0.63113552     0.36100
C2912       C  0.52688733  0.57425554  0.63078206     0.36100
C2913       C  0.90402330  0.98660415  0.66077686    -0.21400
C2914       C  0.90459234  0.52213382  0.65702724    -0.21400
C2915       C  0.59695057  0.99072349  0.65896610    -0.21400
C2916       C  0.59675667  0.52226375  0.65452037    -0.21400
C2917       C  0.98447269  0.90064009  0.64349191    -0.22500
C2918       C  0.51868530  0.90123292  0.64385736    -0.22500
C2919       C  0.98300717  0.60702996  0.63190335    -0.22500
C2920       C  0.51710688  0.60712383  0.63166723    -0.22500
C2921       C  0.94076166  0.94312945  0.63809946    -0.17800
C2922       C  0.94032087  0.56329565  0.63087257    -0.17800
C2923       C  0.56005764  0.56367939  0.63002547    -0.17800
C2924       C  0.56096729  0.94525854  0.63885458    -0.17800
H2925       H  0.88650620  0.97090837  0.67285968     0.15100
H2926       H  0.88688394  0.53888148  0.66821946     0.15100
H2927       H  0.61573967  0.97598570  0.67039226     0.15100
H2928       H  0.61514357  0.53886464  0.66483952     0.15100
H2929       H  0.96876250  0.87923315  0.64716364     0.13400
H2930       H  0.53506740  0.88038800  0.64771978     0.13400
H2931       H  0.96690965  0.62843754  0.63446433     0.13400
H2932       H  0.53308993  0.62865543  0.63396604     0.13400
H2933       H  0.96884558  0.00259590  0.61824790     0.26600
H2934       H  0.52926900  0.00343535  0.61964286     0.26600
N2935       N  0.63494179  0.95757695  0.50513394    -0.36100
N2936       N  0.64235131  0.50185281  0.54794192    -0.56700
N2937       N  0.63660571  0.55030353  0.49953581    -0.36100
N2938       N  0.64041238  0.49980857  0.95327077    -0.56700
C2939       C  0.64617524  0.94100934  0.53012707     0.27500
C2940       C  0.65038714  0.94095524  0.97742041     0.27500
C2941       C  0.64752870  0.56929488  0.52393877     0.27400
C2942       C  0.64478252  0.56976404  0.97431936     0.27400
C2943       C  0.64223093  0.98370713  0.57154619     0.36100
C2944       C  0.64230515  0.52965823  0.56642533     0.36100
C2945       C  0.64138575  0.98330652  0.93812200     0.36100
C2946       C  0.63961894  0.52588393  0.93373417     0.36100
C2947       C  0.66354308  0.91293782  0.52040908    -0.21400
C2948       C  0.66973675  0.91420367  0.98596172    -0.21400
C2949       C  0.66374777  0.59713761  0.51310818    -0.21400
C2950       C  0.66137468  0.59870597  0.98295709    -0.21400
C2951       C  0.64488902  0.99412509  0.60245368    -0.22500
C2952       C  0.64380024  0.52143175  0.59759249    -0.22500
C2953       C  0.64254247  0.99402809  0.90768192    -0.22500
C2954       C  0.64233864  0.51488012  0.90296921    -0.22500
C2955       C  0.64000086  0.95035481  0.56135955    -0.17800
C2956       C  0.64355879  0.94992333  0.94651210    -0.17800
C2957       C  0.63748401  0.55958237  0.94329502    -0.17800
C2958       C  0.64178706  0.56244082  0.55557387    -0.17800
H2959       H  0.67599170  0.89518390  0.53510310     0.15100
H2960       H  0.68317081  0.89722145  0.97046680     0.15100
H2961       H  0.67550515  0.61665325  0.52709149     0.15100
H2962       H  0.67201456  0.61689064  0.96748046     0.15100
H2963       H  0.64791488  0.97845788  0.62252825     0.13400
H2964       H  0.64698310  0.53846221  0.61735748     0.13400
H2965       H  0.64751117  0.97896891  0.88688688     0.13400
H2966       H  0.64530537  0.53015667  0.88259715     0.13400
H2967       H  0.61979549  0.97864031  0.50578116     0.26600
H2968       H  0.62207706  0.52888491  0.50074138     0.26600
N2969       N  0.99857005  0.63867714  0.54553940    -0.36100
N2970       N  0.94761255  0.64091823  0.49740520    -0.56700
N2971       N  0.99675399  0.63824694  0.95077377    -0.36100
N2972       N  0.54876248  0.64143838  0.49687093    -0.56700
C2973       C  0.97165695  0.64909988  0.56198588     0.27500
C2974       C  0.52561592  0.64916155  0.56168912     0.27500
C2975       C  0.96947729  0.64695013  0.93431864     0.27400
C2976       C  0.52363892  0.64695570  0.93370031     0.27400
C2977       C  0.92761773  0.64179065  0.52289667     0.36100
C2978       C  0.92617770  0.64343313  0.97487622     0.36100
C2979       C  0.56916118  0.64182306  0.52204366     0.36100
C2980       C  0.56766645  0.64272924  0.97334492     0.36100
C2981       C  0.98155567  0.66756228  0.58813557    -0.21400
C2982       C  0.51590656  0.66757931  0.58794721    -0.21400
C2983       C  0.97902064  0.66230932  0.90701265    -0.21400
C2984       C  0.51342082  0.66234835  0.90664817    -0.21400
C2985       C  0.89479703  0.64420070  0.51404572    -0.22500
C2986       C  0.89367850  0.64749603  0.98452965    -0.22500
C2987       C  0.60190048  0.64361927  0.51269108    -0.22500
C2988       C  0.60044577  0.64526336  0.98248105    -0.22500
C2989       C  0.93860064  0.64137656  0.55412319    -0.17800
C2990       C  0.55861914  0.64159498  0.55343367    -0.17800
C2991       C  0.55699857  0.64087374  0.94194950    -0.17800
C2992       C  0.93631439  0.64105082  0.94337154    -0.17800
H2993       H  0.96566623  0.67965021  0.60546114     0.15100
H2994       H  0.53191236  0.67976407  0.60508801     0.15100
H2995       H  0.96283763  0.67272849  0.88947137     0.15100
H2996       H  0.52915092  0.67280716  0.88873662     0.15100
H2997       H  0.87367840  0.64813305  0.52938916     0.13400
H2998       H  0.87240957  0.65213518  0.96977618     0.13400
H2999       H  0.62331593  0.64706833  0.52770762     0.13400
H3000       H  0.62169571  0.64849275  0.96731062     0.13400
H3001       H  0.99848568  0.62303296  0.52569098     0.26600
H3002       H  0.99698058  0.62498274  0.97148349     0.26600
C3003       C  0.87309079  0.63039569  0.61955595     0.84000
C3004       C  0.89655562  0.64934328  0.59757770    -0.53300
C3005       C  0.91539121  0.62907853  0.57869192     0.09900
C3006       C  0.90881535  0.59154047  0.58349102     0.20800
C3007       C  0.85217918  0.60737333  0.59753067    -0.54000
C3008       C  0.87098746  0.58679824  0.57857003     0.10000
C3009       C  0.89585759  0.60677775  0.63773545    -0.53500
C3010       C  0.91439498  0.58623010  0.61892501     0.10600
H3011       H  0.89785462  0.67632556  0.59670195     0.15100
H3012       H  0.92427398  0.57497638  0.56815495     0.00800
H3013       H  0.82519064  0.60678678  0.59759452     0.15400
H3014       H  0.89773515  0.60687368  0.66317971     0.15200
N3015       N  0.85408611  0.00154212  0.55359053    -0.36100
N3016       N  0.86052391  0.94806882  0.50539085    -0.56700
N3017       N  0.86346466  0.99005230  0.95428817    -0.36100
N3018       N  0.86196721  0.54801329  0.50083618    -0.56700
C3019       C  0.85728216  0.97487272  0.57213589     0.27500
C3020       C  0.85679795  0.52671139  0.56769619     0.27500
C3021       C  0.86167649  0.96327113  0.93453430     0.27400
C3022       C  0.85726810  0.52307102  0.93827578     0.27400
C3023       C  0.85235143  0.93062814  0.53090677     0.36100
C3024       C  0.85618465  0.91869055  0.97327261     0.36100
C3025       C  0.85165771  0.56722587  0.52539924     0.36100
C3026       C  0.85162180  0.56765924  0.97870506     0.36100
C3027       C  0.85734822  0.98554424  0.60311846    -0.21400
C3028       C  0.85824048  0.51804707  0.59876033    -0.21400
C3029       C  0.85589357  0.97376128  0.90439071    -0.21400
C3030       C  0.84938804  0.51240288  0.90813471    -0.21400
C3031       C  0.83875987  0.90030290  0.52184127    -0.22500
C3032       C  0.84273987  0.88809075  0.98039242    -0.22500
C3033       C  0.83603549  0.59544417  0.51487215    -0.22500
C3034       C  0.83657891  0.59761976  0.98674813    -0.22500
C3035       C  0.85913974  0.94113145  0.56201027    -0.17800
C3036       C  0.85737042  0.55987549  0.55707908    -0.17800
C3037       C  0.85982101  0.55682084  0.94797072    -0.17800
C3038       C  0.86386711  0.92950537  0.94282752    -0.17800
H3039       H  0.85611151  0.96986366  0.62333487     0.15100
H3040       H  0.85706270  0.53497385  0.61875851     0.15100
H3041       H  0.85114072  0.95809205  0.88390790     0.15100
H3042       H  0.84319378  0.52790905  0.88855454     0.15100
H3043       H  0.82923214  0.88125965  0.53702115     0.13400
H3044       H  0.83490014  0.86869311  0.96397964     0.13400
H3045       H  0.82451380  0.61494721  0.52905745     0.13400
H3046       H  0.82750536  0.61625860  0.97093935     0.13400
H3047       H  0.85192869  0.00072803  0.52953516     0.26600
H3048       H  0.86853866  0.98974604  0.97808598     0.26600
C3049       C  0.86438581  0.84228447  0.85317769    -0.16000
C3050       C  0.83933136  0.85215412  0.83474704    -0.31100
H3051       H  0.87184809  0.81627795  0.85233206     0.13100
H3052       H  0.83102813  0.87788958  0.83605875     0.13600
C3053       C  0.84114648  0.64118909  0.86412845    -0.16000
C3054       C  0.84994066  0.66533165  0.84456897    -0.31100
H3055       H  0.81493840  0.63528330  0.86683418     0.13100
H3056       H  0.87595187  0.67231442  0.84255035     0.13600
C3057       C  0.65154447  0.84715770  0.83339177    -0.16000
C3058       C  0.66194840  0.86840273  0.85599148    -0.31100
H3059       H  0.62521912  0.84118865  0.83186835     0.13100
H3060       H  0.68840736  0.87325869  0.85856427     0.13600
C3061       C  0.84791280  0.82309526  0.64886911    -0.16000
C3062       C  0.84970795  0.85632281  0.64624165    -0.31100
H3063       H  0.86492303  0.80692719  0.63605278     0.13100
H3064       H  0.83311357  0.87167177  0.66062119     0.13600
C3065       C  0.64859375  0.64209008  0.85634371    -0.16000
C3066       C  0.64826008  0.67486999  0.85063886    -0.31100
H3067       H  0.66638683  0.62645266  0.84366364     0.13100
H3068       H  0.62953504  0.69097913  0.86110065     0.13600
C3069       C  0.64825699  0.83450070  0.65709348    -0.16000
C3070       C  0.65676829  0.86088290  0.64009979    -0.31100
H3071       H  0.62240076  0.82673480  0.65802313     0.13100
H3072       H  0.68290199  0.86753446  0.63845413     0.13600
C3073       C  0.85345939  0.65336370  0.64120963    -0.16000
C3074       C  0.83212493  0.64146464  0.66239876    -0.31100
H3075       H  0.85792978  0.68004322  0.64052049     0.13100
H3076       H  0.82675268  0.61494236  0.66252589     0.13600
C3077       C  0.64503053  0.65584583  0.63867955    -0.16000
C3078       C  0.66680401  0.64478827  0.65983738    -0.31100
H3079       H  0.63957497  0.68230849  0.63785175     0.13100
H3080       H  0.67308142  0.61847777  0.66025707     0.13600
loop_ 
_geom_bond_atom_site_label_1 
_geom_bond_atom_site_label_2 
_geom_bond_distance 
_geom_bond_site_symmetry_2 
_ccdc_geom_bond_type 
C1           N19   1.346       .  A
C1           C38   1.463       .  S
C1          C383   1.472       .  S
N2           N19   1.323       .  A
N2           N24   1.320       .  A
N2          Co39   2.081       .  S
C3           N28   1.343       .  A
C3           C41   1.457       .  S
C3           H48   1.081       .  S
H4           C45   1.081       .  S
C5           N29   1.341       .  A
C5            C9   1.457       .  S
C5           H34   1.082       .  S
Co6          N24   2.086       .  S
Co6          N14   2.076       .  S
Co6          N46   2.070       .  S
Co6          N22   2.077       .  S
Co6         Cl50   2.439       .  S
N7           C45   1.344       .  A
N7           N14   1.321       .  A
N7           Co8   2.096       .  S
Co8          N11   2.093       .  S
Co8          N28   2.086       .  S
Co8          N15   2.081       .  S
Co8         Cl50   2.464       .  S
C9           N47   1.352       .  A
C9          C366   1.479       .  S
N10          N17   1.322       .  A
N10          N40   1.329       .  A
N10         Co43   2.116       .  S
N11          N29   1.322       .  A
N11          N47   1.327       .  A
N12          C41   1.348       .  A
N12          N22   1.323       .  A
H13          C38   1.081       .  S
N14          N35   1.323       .  A
N15          N33   1.321       .  A
N15          N20   1.324       .  A
C16          N20   1.346       .  A
C16          C44   1.469       .  S
C16         C355   1.482       .  S
N17          C32   1.339       .  A
N17         Co39   2.075       .  S
C18          N46   1.337       .  A
C18          C21   1.450       .  S
C18          H52   1.082       .  S
C21          N42   1.354       .  A
C21         C371   1.471       .  S
N22          N28   1.319       .  A
N23          C49   1.344       .  A
N23          N25   1.320       .  A
N23         Co39   2.090       .  S
N24          C38   1.342       .  A
N25          N53   1.322       .  A
N25         Co43   2.077       .  S
H26          C49   1.082       .  S
H27          C44   1.081       .  S
N29         Co43   2.087       .  S
N30          N42   1.326       .  A
N30          N46   1.319       .  A
N30         Co39   2.091       .  S
C31          N35   1.346       .  A
C31          C45   1.468       .  S
C31         C374   1.478       .  S
C32          C51   1.450       .  S
C32          H36   1.082       .  S
N33          C44   1.348       .  A
N33         Co43   2.110       .  S
C37          N53   1.344       .  A
C37          C49   1.467       .  S
C37         C359   1.473       .  S
Co39        Cl50   2.464       .  S
N40          C51   1.358       .  A
C41         C362   1.470       .  S
Co43        Cl50   2.441       .  S
C51         C379   1.480       .  S
C54          C55   1.544       .  S
C54          C60   1.542       .  S
C54          C58   1.554       .  S
C54         C354   1.520       .  S
C55          H62   1.086       .  S
C55          C56   1.361       .  D
C56         C183   1.494       .  S
C56          C57   1.543       .  S
C57          C61   1.540       .  S
C57          C59   1.540       .  S
C57          H63   1.112       .  S
C58          H64   1.085       .  S
C58          C59   1.373       .  D
C59         C343   1.498       .  S
C60          H65   1.086       .  S
C60          C61   1.362       .  D
C61         C122   1.490       .  S
C66          C67   1.548       .  S
C66          C72   1.549       .  S
C66          C70   1.536       .  S
C66         C358   1.511       .  S
C67          H74   1.086       .  S
C67          C68   1.367       .  D
C68         C123   1.497       .  S
C68          C69   1.543       .  S
C69          C73   1.545       .  S
C69          C71   1.540       .  S
C69          H75   1.112       .  S
C70          H76   1.086       .  S
C70          C71   1.357       .  D
C71         C342   1.480       .  S
C72          H77   1.086       .  S
C72          C73   1.366       .  D
C73         C297   1.497       .  S
C78          C79   1.544       .  S
C78          C84   1.542       .  S
C78          C82   1.545       .  S
C78         C363   1.506       .  S
C79          H86   1.086       .  S
C79          C80   1.364       .  D
C80         C261   1.488       .  S
C80          C81   1.542       .  S
C81          C85   1.543       .  S
C81          C83   1.543       .  S
C81          H87   1.112       .  S
C82          H88   1.086       .  S
C82          C83   1.363       .  D
C83         C182   1.494       .  S
C84          H89   1.086       .  S
C84          C85   1.361       .  D
C85         C125   1.491       .  S
C90          C91   1.546       .  S
C90          C96   1.536       .  S
C90          C94   1.554       .  S
C90         C370   1.514       .  S
C91          H98   1.086       .  S
C91          C92   1.364       .  D
C92         C124   1.497       .  S
C92          C93   1.543       .  S
C93          C97   1.543       .  S
C93          C95   1.540       .  S
C93          H99   1.112       .  S
C94         H100   1.083       .  S
C94          C95   1.365       .  D
C95         C296   1.492       .  S
C96         H101   1.086       .  S
C96          C97   1.358       .  D
C97         C262   1.484       .  S
N102        C106   1.353       .  A
N102        C877   1.352       .  A
N102        H134   1.040       .  S
N103        C110   1.349       .  A
N103       C1651   1.349       .  A
N104        C108   1.351       .  A
N104        C879   1.350       .  A
N104        H135   1.042       .  S
N105        C112   1.351       .  A
N105       C1653   1.352       .  A
C106        C114   1.382       .  A
C106        C122   1.409       .  A
C107        N872   1.352   1_545  A
C107        C123   1.410       .  A
C107        C115   1.383       .  A
C108        C116   1.383       .  A
C108        C125   1.404       .  A
C109        N874   1.351       .  A
C109        C124   1.404       .  A
C109        C117   1.382       .  A
C110        C122   1.402       .  A
C110        C118   1.378       .  A
C111       N1643   1.349   1_455  A
C111        C125   1.400       .  A
C111        C119   1.376       .  A
C112        C120   1.377       .  A
C112        C123   1.406       .  A
C113       N1645   1.352   1_455  A
C113        C121   1.376       .  A
C113        C124   1.406       .  A
C114        H126   1.082       .  S
C114        C885   1.380       .  A
C115        H127   1.082       .  S
C115        C884   1.383   1_545  A
C116        H128   1.082       .  S
C116        C887   1.381       .  A
C117        H129   1.082       .  S
C117        C886   1.381   1_545  A
C118        H130   1.079       .  S
C118       C1659   1.368       .  A
C119        H131   1.080       .  S
C119       C1658   1.369   1_455  A
C120        H132   1.080       .  S
C120       C1661   1.372       .  A
C121        H133   1.080       .  S
C121       C1660   1.372   1_455  A
C136        C137   1.548       .  S
C136        C142   1.552       .  S
C136        C140   1.541       .  S
C136        C367   1.523       .  S
C137        H144   1.086       .  S
C137        C138   1.367       .  D
C138        C226   1.499       .  S
C138        C139   1.543       .  S
C139        C143   1.546       .  S
C139        C141   1.549       .  S
C139        H145   1.111       .  S
C140        H146   1.086       .  S
C140        C141   1.361       .  D
C141        C340   1.499       .  S
C142        H147   1.082       .  S
C142        C143   1.364       .  D
C143        C180   1.496       .  S
C148        C149   1.550       .  S
C148        C154   1.539       .  S
C148        C152   1.545       .  S
C148        C375   1.515       .  S
C149        H156   1.086       .  S
C149        C150   1.370       .  D
C150        C229   1.499       .  S
C150        C151   1.543       .  S
C151        C155   1.545       .  S
C151        C153   1.542       .  S
C151        H157   1.112       .  S
C152        H158   1.086       .  S
C152        C153   1.364       .  D
C153        C181   1.489       .  S
C154        H159   1.086       .  S
C154        C155   1.357       .  D
C155        C260   1.493       .  S
N160        C164   1.352       .  A
N160       C1705   1.351       .  A
N160        H192   1.041       .  S
N161        C168   1.349       .  A
N161        C554   1.349   1_554  A
N162        C166   1.350       .  A
N162       C1707   1.350       .  A
N162        H193   1.042       .  S
N163        C170   1.349       .  A
N163        C556   1.351   1_554  A
C164        C172   1.382       .  A
C164        C180   1.407       .  A
C165       N1700   1.350   1_455  A
C165        C181   1.405       .  A
C165        C173   1.382       .  A
C166        C174   1.383       .  A
C166        C183   1.403       .  A
C167       N1702   1.350       .  A
C167        C182   1.403       .  A
C167        C175   1.383       .  A
C168        C180   1.400       .  A
C168        C176   1.377       .  A
C169        N546   1.351       .  A
C169        C183   1.403       .  A
C169        C177   1.375       .  A
C170        C178   1.378       .  A
C170        C181   1.403       .  A
C171        N548   1.352       .  A
C171        C179   1.377       .  A
C171        C182   1.404       .  A
C172        H184   1.082       .  S
C172       C1713   1.382       .  A
C173        H185   1.082       .  S
C173       C1712   1.382   1_455  A
C174        H186   1.082       .  S
C174       C1715   1.381       .  A
C175        H187   1.082       .  S
C175       C1714   1.381   1_455  A
C176        H188   1.080       .  S
C176        C562   1.371   1_554  A
C177        H189   1.080       .  S
C177        C561   1.372       .  A
C178        H190   1.080       .  S
C178        C564   1.372   1_554  A
C179        H191   1.080       .  S
C179        C563   1.372       .  A
C194        C195   1.540       .  S
C194        C200   1.546       .  S
C194        C198   1.545       .  S
C194        C382   1.509       .  S
C195        H202   1.086       .  S
C195        C196   1.360       .  D
C196        C295   1.485       .  S
C196        C197   1.539       .  S
C197        C201   1.540       .  S
C197        C199   1.545       .  S
C197        H203   1.112       .  S
C198        H204   1.086       .  S
C198        C199   1.364       .  D
C199        C228   1.497       .  S
C200        H205   1.086       .  S
C200        C201   1.365       .  D
C201        C263   1.488       .  S
N206        C210   1.351       .  A
N206        C981   1.351       .  A
N206        H238   1.042       .  S
N207        C214   1.353       .  A
N207       C1755   1.354       .  A
N208        C212   1.351       .  A
N208        C983   1.351       .  A
N208        H239   1.042       .  S
N209        C216   1.351       .  A
N209       C1757   1.351       .  A
C210        C218   1.382       .  A
C210        C226   1.405       .  A
C211        N976   1.350   1_545  A
C211        C227   1.402       .  A
C211        C219   1.382       .  A
C212        C220   1.381       .  A
C212        C229   1.405       .  A
C213        N978   1.352   1_545  A
C213        C228   1.404       .  A
C213        C221   1.382       .  A
C214        C226   1.408       .  A
C214        C222   1.377       .  A
C215       N1747   1.353   1_455  A
C215        C229   1.409       .  A
C215        C223   1.377       .  A
C216        C224   1.377       .  A
C216        C227   1.404       .  A
C217       N1749   1.351   1_455  A
C217        C225   1.377       .  A
C217        C228   1.404       .  A
C218        H230   1.082       .  S
C218        C989   1.382       .  A
C219        H231   1.082       .  S
C219        C988   1.381   1_545  A
C220        H232   1.082       .  S
C220        C991   1.380       .  A
C221        H233   1.082       .  S
C221        C990   1.381   1_545  A
C222        H234   1.080       .  S
C222       C1763   1.375       .  A
C223        H235   1.080       .  S
C223       C1762   1.375   1_455  A
C224        H236   1.080       .  S
C224       C1765   1.372       .  A
C225        H237   1.080       .  S
C225       C1764   1.372   1_455  A
C227        C315   1.493       .  S
N240        C244   1.350       .  A
N240        C630   1.351   1_554  A
N240        H272   1.042       .  S
N241        C249   1.350       .  A
N241       C1018   1.349   1_545  A
N242        C246   1.350       .  A
N242        C632   1.348   1_554  A
N242        H273   1.042       .  S
N243        C251   1.347       .  A
N243       C1020   1.347   1_545  A
C244        C252   1.382       .  A
C244        C260   1.404       .  A
C245        N625   1.350       .  A
C245        C261   1.400       .  A
C245        C253   1.382       .  A
C246        C254   1.382       .  A
C246        C263   1.402       .  A
C247        N627   1.349       .  A
C247        C262   1.402       .  A
C247        C255   1.383       .  A
C248       N1011   1.350       .  A
C248        C260   1.401       .  A
C248        C256   1.377       .  A
C249        C263   1.400       .  A
C249        C257   1.376       .  A
C250       N1013   1.349       .  A
C250        C258   1.377       .  A
C250        C261   1.400       .  A
C251        C259   1.377       .  A
C251        C262   1.397       .  A
C252        H264   1.082       .  S
C252        C638   1.380   1_554  A
C253        H265   1.082       .  S
C253        C637   1.380       .  A
C254        H266   1.082       .  S
C254        C640   1.382   1_554  A
C255        H267   1.082       .  S
C255        C639   1.381       .  A
C256        H268   1.080       .  S
C256       C1027   1.371       .  A
C257        H269   1.080       .  S
C257       C1026   1.369   1_545  A
C258        H270   1.080       .  S
C258       C1029   1.370       .  A
C259        H271   1.080       .  S
C259       C1028   1.368   1_545  A
N274        C278   1.348       .  A
N274       C1819   1.347       .  A
N274        H306   1.043       .  S
N275        C282   1.349       .  A
N275        C668   1.347   1_554  A
N276        C280   1.351       .  A
N276       C1821   1.351       .  A
N276        H307   1.041       .  S
N277        C284   1.351       .  A
N277        C670   1.351   1_554  A
C278        C286   1.382       .  A
C278        C294   1.395       .  A
C279       N1814   1.347   1_455  A
C279        C295   1.394       .  A
C279        C287   1.381       .  A
C280        C288   1.382       .  A
C280        C297   1.405       .  A
C281       N1816   1.351   1_455  A
C281        C296   1.405       .  A
C281        C289   1.382       .  A
C282        C294   1.396       .  A
C282        C290   1.375       .  A
C283        N660   1.351       .  A
C283        C297   1.405       .  A
C283        C291   1.377       .  A
C284        C292   1.376       .  A
C284        C295   1.402       .  A
C285        N662   1.350       .  A
C285        C293   1.378       .  A
C285        C296   1.405       .  A
C286        H298   1.082       .  S
C286       C1827   1.377       .  A
C287        H299   1.082       .  S
C287       C1826   1.377   1_455  A
C288        H300   1.082       .  S
C288       C1829   1.382       .  A
C289        H301   1.082       .  S
C289       C1828   1.382   1_455  A
C290        H302   1.080       .  S
C290        C676   1.369   1_554  A
C291        H303   1.080       .  S
C291        C675   1.374       .  A
C292        H304   1.080       .  S
C292        C678   1.373   1_554  A
C293        H305   1.080       .  S
C293        C677   1.372       .  A
C294        C310   1.485       .  S
C308        C309   1.537       .  S
C308        C314   1.544       .  S
C308        C312   1.554       .  S
C308        C378   1.517       .  S
C309        H316   1.086       .  S
C309        C310   1.355       .  D
C310        C311   1.542       .  S
C311        C315   1.544       .  S
C311        C313   1.545       .  S
C311        H317   1.112       .  S
C312        H318   1.085       .  S
C312        C313   1.374       .  D
C313        C341   1.505       .  S
C314        H319   1.086       .  S
C314        C315   1.364       .  D
N320        C324   1.354       .  A
N320       C1095   1.356       .  A
N320        H352   1.031       .  S
N321        C328   1.347       .  A
N321        C714   1.348   1_554  A
N322        C326   1.354       .  A
N322       C1097   1.351       .  A
N322        H353   1.032       .  S
N323        C330   1.351       .  A
N323        C716   1.350   1_554  A
C324        C332   1.378       .  A
C324        C340   1.417       .  A
C325       N1090   1.355   1_545  A
C325        C341   1.418       .  A
C325        C333   1.378       .  A
C326        C334   1.380       .  A
C326        C343   1.412       .  A
C327       N1092   1.349   1_545  A
C327        C342   1.409       .  A
C327        C335   1.380       .  A
C328        C340   1.408       .  A
C328        C336   1.382       .  A
C329        N706   1.349       .  A
C329        C343   1.409       .  A
C329        C337   1.381       .  A
C330        C338   1.380       .  A
C330        C341   1.410       .  A
C331        N708   1.344       .  A
C331        C339   1.383       .  A
C331        C342   1.406       .  A
C332        H344   1.079       .  S
C332       C1103   1.380       .  A
C333        H345   1.079       .  S
C333       C1102   1.379   1_545  A
C334        H346   1.082       .  S
C334       C1105   1.380       .  A
C335        H347   1.081       .  S
C335       C1104   1.378   1_545  A
C336        H348   1.082       .  S
C336        C722   1.381   1_554  A
C337        H349   1.082       .  S
C337        C721   1.382       .  A
C338        H350   1.082       .  S
C338        C724   1.381   1_554  A
C339        H351   1.082       .  S
C339        C723   1.380       .  A
C354        H356   1.087       .  S
C354        C355   1.343       .  D
C355        H357   1.086       .  S
C358        H360   1.087       .  S
C358        C359   1.337       .  D
C359        H361   1.086       .  S
C362        H364   1.086       .  S
C362        C363   1.343       .  D
C363        H365   1.087       .  S
C366        H368   1.081       .  S
C366        C367   1.348       .  D
C367        H369   1.087       .  S
C370        H372   1.087       .  S
C370        C371   1.341       .  D
C371        H373   1.081       .  S
C374        H376   1.086       .  S
C374        C375   1.340       .  D
C375        H377   1.086       .  S
C378        H380   1.087       .  S
C378        C379   1.338       .  D
C379        H381   1.086       .  S
C382        H384   1.086       .  S
C382        C383   1.340       .  D
C383        H385   1.087       .  S
C386        N404   1.347       .  A
C386        C423   1.459       .  S
C386        C768   1.467       .  S
N387        N404   1.324       .  A
N387        N409   1.320       .  A
N387       Co424   2.081       .  S
C388        N413   1.340       .  A
C388        C426   1.454       .  S
C388        H433   1.081       .  S
H389        C430   1.082       .  S
C390        N414   1.343       .  A
C390        C394   1.458       .  S
C390        H419   1.082       .  S
Co391       N409   2.076       .  S
Co391       N399   2.079       .  S
Co391       N431   2.071       .  S
Co391       N407   2.086       .  S
Co391      Cl435   2.436       .  S
N392        C430   1.344       .  A
N392        N399   1.320       .  A
N392       Co393   2.089       .  S
Co393       N396   2.096       .  S
Co393       N413   2.083       .  S
Co393       N400   2.076       .  S
Co393      Cl435   2.470       .  S
C394        N432   1.354       .  A
C394        C751   1.486       .  S
N395        N402   1.322       .  A
N395        N425   1.326       .  A
N395       Co428   2.091       .  S
N396        N414   1.321       .  A
N396        N432   1.329       .  A
N397        C426   1.351       .  A
N397        N407   1.326       .  A
H398        C423   1.081       .  S
N399        N420   1.323       .  A
N400        N418   1.321       .  A
N400        N405   1.323       .  A
C401        N405   1.344       .  A
C401        C429   1.465       .  S
C401        C740   1.470       .  S
N402        C417   1.341       .  A
N402       Co424   2.091       .  S
C403        N431   1.337       .  A
C403        C406   1.448       .  S
C403        H437   1.082       .  S
C406        N427   1.359       .  A
C406        C756   1.480       .  S
N407        N413   1.320       .  A
N408        C434   1.345       .  A
N408        N410   1.322       .  A
N408       Co424   2.091       .  S
N409        C423   1.339       .  A
N410        N438   1.324       .  A
N410       Co428   2.095       .  S
H411        C434   1.082       .  S
H412        C429   1.082       .  S
N414       Co428   2.097       .  S
N415        N427   1.330       .  A
N415        N431   1.321       .  A
N415       Co424   2.114       .  S
C416        N420   1.345       .  A
C416        C430   1.466       .  S
C416        C759   1.474       .  S
C417        C436   1.455       .  S
C417        H421   1.081       .  S
N418        C429   1.343       .  A
N418       Co428   2.093       .  S
C422        N438   1.348       .  A
C422        C434   1.466       .  S
C422        C744   1.481       .  S
Co424      Cl435   2.468       .  S
N425        C436   1.352       .  A
C426        C747   1.471       .  S
Co428      Cl435   2.439       .  S
C436        C764   1.475       .  S
C439        C440   1.538       .  S
C439        C445   1.541       .  S
C439        C443   1.550       .  S
C439        C739   1.507       .  S
C440        H447   1.086       .  S
C440        C441   1.358       .  D
C441        C568   1.487       .  S
C441        C442   1.545       .  S
C442        C446   1.541       .  S
C442        C444   1.542       .  S
C442        H448   1.112       .  S
C443        H449   1.085       .  S
C443        C444   1.370       .  D
C444        C728   1.496       .  S
C445        H450   1.086       .  S
C445        C446   1.359       .  D
C446        C507   1.488       .  S
C451        C452   1.549       .  S
C451        C457   1.545       .  S
C451        C455   1.544       .  S
C451        C743   1.518       .  S
C452        H459   1.085       .  S
C452        C453   1.369       .  D
C453        C508   1.498       .  S
C453        C454   1.541       .  S
C454        C458   1.542       .  S
C454        C456   1.546       .  S
C454        H460   1.112       .  S
C455        H461   1.086       .  S
C455        C456   1.362       .  D
C456        C727   1.498       .  S
C457        H462   1.086       .  S
C457        C458   1.364       .  D
C458        C682   1.488       .  S
C463        C464   1.548       .  S
C463        C469   1.541       .  S
C463        C467   1.542       .  S
C463        C748   1.510       .  S
C464        H471   1.086       .  S
C464        C465   1.367       .  D
C465        C646   1.495       .  S
C465        C466   1.543       .  S
C466        C470   1.543       .  S
C466        C468   1.544       .  S
C466        H472   1.112       .  S
C467        H473   1.086       .  S
C467        C468   1.362       .  D
C468        C567   1.491       .  S
C469        H474   1.086       .  S
C469        C470   1.360       .  D
C470        C510   1.490       .  S
C475        C476   1.547       .  S
C475        C481   1.535       .  S
C475        C479   1.554       .  S
C475        C755   1.517       .  S
C476        H483   1.086       .  S
C476        C477   1.366       .  D
C477        C509   1.500       .  S
C477        C478   1.545       .  S
C478        C482   1.545       .  S
C478        C480   1.539       .  S
C478        H484   1.112       .  S
C479        H485   1.085       .  S
C479        C480   1.374       .  D
C480        C681   1.497       .  S
C481        H486   1.087       .  S
C481        C482   1.353       .  D
C482        C647   1.485       .  S
N487       C1262   1.351       .  A
N487        C491   1.351       .  A
N487        H519   1.039       .  S
N488        C495   1.348       .  A
N488       C2036   1.349       .  A
N489       C1264   1.350       .  A
N489        C493   1.351       .  A
N489        H520   1.041       .  S
N490        C497   1.354       .  A
N490       C2038   1.354       .  A
C491        C499   1.382       .  A
C491        C507   1.406       .  A
C492       N1257   1.351       .  A
C492        C508   1.406       .  A
C492        C500   1.382       .  A
C493        C501   1.381       .  A
C493        C510   1.403       .  A
C494       N1259   1.350       .  A
C494        C509   1.404       .  A
C494        C502   1.382       .  A
C495        C507   1.403       .  A
C495        C503   1.379       .  A
C496       N2028   1.349   1_455  A
C496        C510   1.401       .  A
C496        C504   1.377       .  A
C497        C505   1.378       .  A
C497        C508   1.412       .  A
C498       N2030   1.354   1_455  A
C498        C506   1.377       .  A
C498        C509   1.411       .  A
C499        H511   1.082       .  S
C499       C1270   1.381       .  A
C500        H512   1.082       .  S
C500       C1269   1.381   1_545  A
C501        H513   1.082       .  S
C501       C1272   1.379       .  A
C502        H514   1.082       .  S
C502       C1271   1.381   1_545  A
C503        H515   1.080       .  S
C503       C2044   1.371       .  A
C504        H516   1.080       .  S
C504       C2043   1.371   1_455  A
C505        H517   1.080       .  S
C505       C2046   1.376       .  A
C506        H518   1.080       .  S
C506       C2045   1.376   1_455  A
C521        C522   1.548       .  S
C521        C527   1.556       .  S
C521        C525   1.542       .  S
C521        C752   1.529       .  S
C522        H529   1.086       .  S
C522        C523   1.366       .  D
C523        C611   1.498       .  S
C523        C524   1.543       .  S
C524        C528   1.545       .  S
C524        C526   1.548       .  S
C524        H530   1.111       .  S
C525        H531   1.086       .  S
C525        C526   1.362       .  D
C526        C725   1.499       .  S
C527        H532   1.083       .  S
C527        C528   1.368       .  D
C528        C565   1.501       .  S
C533        C534   1.544       .  S
C533        C539   1.538       .  S
C533        C537   1.556       .  S
C533        C760   1.518       .  S
C534        H541   1.086       .  S
C534        C535   1.364       .  D
C535        C614   1.492       .  S
C535        C536   1.541       .  S
C536        C540   1.544       .  S
C536        C538   1.543       .  S
C536        H542   1.112       .  S
C537        H543   1.083       .  S
C537        C538   1.367       .  D
C538        C566   1.499       .  S
C539        H544   1.086       .  S
C539        C540   1.359       .  D
C540        C645   1.489       .  S
N545       C2090   1.352       .  A
N545        C549   1.353       .  A
N545        H577   1.042       .  S
N546        C553   1.351       .  A
N547       C2092   1.349       .  A
N547        C551   1.348       .  A
N547        H578   1.042       .  S
N548        C555   1.351       .  A
C549        C557   1.383       .  A
C549        C565   1.410       .  A
C550       N2085   1.352       .  A
C550        C566   1.408       .  A
C550        C558   1.382       .  A
C551        C559   1.382       .  A
C551        C568   1.400       .  A
C552       N2087   1.349   1_455  A
C552        C567   1.400       .  A
C552        C560   1.381       .  A
C553        C565   1.404       .  A
C553        C561   1.376       .  A
C554        C568   1.400       .  A
C554        C562   1.376       .  A
C555        C563   1.377       .  A
C555        C566   1.405       .  A
C556        C564   1.376       .  A
C556        C567   1.402       .  A
C557        H569   1.082       .  S
C557       C2098   1.383       .  A
C558        H570   1.082       .  S
C558       C2097   1.383   1_455  A
C559        H571   1.082       .  S
C559       C2100   1.379       .  A
C560        H572   1.082       .  S
C560       C2099   1.379   1_455  A
C561        H573   1.080       .  S
C562        H574   1.080       .  S
C563        H575   1.080       .  S
C564        H576   1.080       .  S
C579        C580   1.540       .  S
C579        C585   1.543       .  S
C579        C583   1.542       .  S
C579        C767   1.502       .  S
C580        H587   1.086       .  S
C580        C581   1.360       .  D
C581        C680   1.491       .  S
C581        C582   1.546       .  S
C582        C586   1.543       .  S
C582        C584   1.545       .  S
C582        H588   1.111       .  S
C583        H589   1.086       .  S
C583        C584   1.361       .  D
C584        C613   1.492       .  S
C585        H590   1.086       .  S
C585        C586   1.364       .  D
C586        C648   1.487       .  S
N591       C1366   1.349       .  A
N591        C595   1.351       .  A
N591        H623   1.043       .  S
N592        C599   1.352       .  A
N592       C2140   1.351       .  A
N593       C1368   1.350       .  A
N593        C597   1.349       .  A
N593        H624   1.042       .  S
N594        C601   1.350       .  A
N594       C2142   1.349       .  A
C595        C603   1.382       .  A
C595        C611   1.403       .  A
C596       N1361   1.352       .  A
C596        C612   1.404       .  A
C596        C604   1.382       .  A
C597        C605   1.382       .  A
C597        C614   1.402       .  A
C598       N1363   1.352       .  A
C598        C613   1.406       .  A
C598        C606   1.382       .  A
C599        C611   1.405       .  A
C599        C607   1.376       .  A
C600       N2132   1.351   1_455  A
C600        C614   1.405       .  A
C600        C608   1.376       .  A
C601        C609   1.376       .  A
C601        C612   1.399       .  A
C602       N2134   1.349   1_455  A
C602        C610   1.378       .  A
C602        C613   1.401       .  A
C603        H615   1.082       .  S
C603       C1374   1.381       .  A
C604        H616   1.082       .  S
C604       C1373   1.380   1_545  A
C605        H617   1.082       .  S
C605       C1376   1.381       .  A
C606        H618   1.082       .  S
C606       C1375   1.381   1_545  A
C607        H619   1.080       .  S
C607       C2148   1.373       .  A
C608        H620   1.080       .  S
C608       C2147   1.373   1_455  A
C609        H621   1.080       .  S
C609       C2150   1.369       .  A
C610        H622   1.080       .  S
C610       C2149   1.369   1_455  A
C612        C700   1.494       .  S
N625        C629   1.347       .  A
N625        H657   1.042       .  S
N626       C1403   1.350   1_545  A
N626        C634   1.349       .  A
N627        C631   1.349       .  A
N627        H658   1.041       .  S
N628       C1405   1.349   1_545  A
N628        C636   1.347       .  A
C629        C637   1.383       .  A
C629        C645   1.400       .  A
C630        C646   1.403       .  A
C630        C638   1.382       .  A
C631        C639   1.382       .  A
C631        C648   1.400       .  A
C632        C647   1.403       .  A
C632        C640   1.384       .  A
C633       N1396   1.350       .  A
C633        C645   1.405       .  A
C633        C641   1.377       .  A
C634        C648   1.403       .  A
C634        C642   1.378       .  A
C635       N1398   1.352       .  A
C635        C643   1.377       .  A
C635        C646   1.406       .  A
C636        C644   1.377       .  A
C636        C647   1.397       .  A
C637        H649   1.082       .  S
C638        H650   1.082       .  S
C639        H651   1.082       .  S
C640        H652   1.082       .  S
C641        H653   1.079       .  S
C641       C1412   1.373       .  A
C642        H654   1.081       .  S
C642       C1411   1.373   1_545  A
C643        H655   1.080       .  S
C643       C1414   1.374       .  A
C644        H656   1.079       .  S
C644       C1413   1.367   1_545  A
N659       C2204   1.349       .  A
N659        C663   1.349       .  A
N659        H691   1.042       .  S
N660        C667   1.351       .  A
N661       C2206   1.353       .  A
N661        C665   1.352       .  A
N661        H692   1.041       .  S
N662        C669   1.351       .  A
C663        C671   1.382       .  A
C663        C679   1.401       .  A
C664       N2199   1.350   1_455  A
C664        C680   1.402       .  A
C664        C672   1.382       .  A
C665        C673   1.382       .  A
C665        C682   1.407       .  A
C666       N2201   1.353   1_455  A
C666        C681   1.407       .  A
C666        C674   1.382       .  A
C667        C679   1.405       .  A
C667        C675   1.377       .  A
C668        C682   1.399       .  A
C668        C676   1.378       .  A
C669        C677   1.377       .  A
C669        C680   1.403       .  A
C670        C678   1.377       .  A
C670        C681   1.406       .  A
C671        H683   1.082       .  S
C671       C2212   1.379       .  A
C672        H684   1.082       .  S
C672       C2211   1.379   1_455  A
C673        H685   1.082       .  S
C673       C2214   1.382       .  A
C674        H686   1.082       .  S
C674       C2213   1.382   1_455  A
C675        H687   1.080       .  S
C676        H688   1.080       .  S
C677        H689   1.080       .  S
C678        H690   1.080       .  S
C679        C695   1.494       .  S
C693        C694   1.542       .  S
C693        C699   1.543       .  S
C693        C697   1.549       .  S
C693        C763   1.513       .  S
C694        H701   1.086       .  S
C694        C695   1.361       .  D
C695        C696   1.546       .  S
C696        C700   1.545       .  S
C696        C698   1.543       .  S
C696        H702   1.111       .  S
C697        H703   1.085       .  S
C697        C698   1.369       .  D
C698        C726   1.497       .  S
C699        H704   1.086       .  S
C699        C700   1.362       .  D
N705       C1480   1.355       .  A
N705        C709   1.353       .  A
N705        H737   1.031       .  S
N706        C713   1.348       .  A
N707       C1482   1.351       .  A
N707        C711   1.353       .  A
N707        H738   1.034       .  S
N708        C715   1.348       .  A
C709        C717   1.379       .  A
C709        C725   1.416       .  A
C710       N1475   1.354       .  A
C710        C726   1.414       .  A
C710        C718   1.377       .  A
C711        C719   1.380       .  A
C711        C728   1.411       .  A
C712       N1477   1.352   1_545  A
C712        C727   1.411       .  A
C712        C720   1.380       .  A
C713        C725   1.410       .  A
C713        C721   1.382       .  A
C714        C728   1.408       .  A
C714        C722   1.381       .  A
C715        C723   1.380       .  A
C715        C726   1.404       .  A
C716        C724   1.383       .  A
C716        C727   1.413       .  A
C717        H729   1.079       .  S
C717       C1488   1.379       .  A
C718        H730   1.079       .  S
C718       C1487   1.379   1_545  A
C719        H731   1.081       .  S
C719       C1490   1.379       .  A
C720        H732   1.081       .  S
C720       C1489   1.378   1_545  A
C721        H733   1.082       .  S
C722        H734   1.082       .  S
C723        H735   1.082       .  S
C724        H736   1.082       .  S
C739        H741   1.087       .  S
C739        C740   1.338       .  D
C740        H742   1.087       .  S
C743        H745   1.086       .  S
C743        C744   1.343       .  D
C744        H746   1.086       .  S
C747        H749   1.086       .  S
C747        C748   1.341       .  D
C748        H750   1.087       .  S
C751        H753   1.082       .  S
C751        C752   1.349       .  D
C752        H754   1.087       .  S
C755        H757   1.088       .  S
C755        C756   1.336       .  D
C756        H758   1.086       .  S
C759        H761   1.082       .  S
C759        C760   1.342       .  D
C760        H762   1.087       .  S
C763        H765   1.087       .  S
C763        C764   1.342       .  D
C764        H766   1.086       .  S
C767        H769   1.086       .  S
C767        C768   1.339       .  D
C768        H770   1.087       .  S
C771        N789   1.347       .  A
C771        C808   1.461       .  S
C771       C1153   1.471       .  S
N772        N789   1.324       .  A
N772        N794   1.319       .  A
N772       Co809   2.083       .  S
C773        N798   1.347       .  A
C773        C811   1.469       .  S
C773        H818   1.081       .  S
H774        C815   1.081       .  S
C775        N799   1.349       .  A
C775        C779   1.469       .  S
C775        H804   1.082       .  S
Co776       N794   2.073       .  S
Co776       N784   2.068       .  S
Co776       N816   2.058       .  S
Co776       N792   2.055       .  S
Co776      Cl820   2.444       .  S
N777        C815   1.342       .  A
N777        N784   1.320       .  A
N777       Co778   2.095       .  S
Co778       N781   2.089       .  S
Co778       N798   2.105       .  S
Co778       N785   2.093       .  S
Co778      Cl820   2.456       .  S
C779        N817   1.348       .  A
C779       C1136   1.484       .  S
N780        N787   1.322       .  A
N780        N810   1.332       .  A
N780       Co813   2.118       .  S
N781        N799   1.322       .  A
N781        N817   1.324       .  A
N782        C811   1.339       .  A
N782        N792   1.319       .  A
H783        C808   1.081       .  S
N784        N805   1.323       .  A
N785        N803   1.323       .  A
N785        N790   1.327       .  A
C786        N790   1.350       .  A
C786        C814   1.466       .  S
C786       C1125   1.484       .  S
N787        C802   1.333       .  A
N787       Co809   2.065       .  S
C788        N816   1.333       .  A
C788        C791   1.443       .  S
C788        H822   1.082       .  S
C791        N812   1.356       .  A
C791       C1141   1.466       .  S
N792        N798   1.320       .  A
N793        C819   1.346       .  A
N793        N795   1.322       .  A
N793       Co809   2.096       .  S
N794        C808   1.339       .  A
N795        N823   1.326       .  A
N795       Co813   2.100       .  S
H796        C819   1.081       .  S
H797        C814   1.081       .  S
N799       Co813   2.110       .  S
N800        N812   1.327       .  A
N800        N816   1.319       .  A
N800       Co809   2.096       .  S
C801        N805   1.346       .  A
C801        C815   1.464       .  S
C801       C1144   1.472       .  S
C802        C821   1.443       .  S
C802        H806   1.082       .  S
N803        C814   1.345       .  A
N803       Co813   2.108       .  S
C807        N823   1.350       .  A
C807        C819   1.467       .  S
C807       C1129   1.487       .  S
Co809      Cl820   2.458       .  S
N810        C821   1.359       .  A
C811       C1132   1.466       .  S
Co813      Cl820   2.454       .  S
C821       C1149   1.474       .  S
C824        C825   1.544       .  S
C824        C830   1.545       .  S
C824        C828   1.551       .  S
C824       C1124   1.520       .  S
C825        H832   1.086       .  S
C825        C826   1.361       .  D
C826        C953   1.494       .  S
C826        C827   1.543       .  S
C827        C831   1.543       .  S
C827        C829   1.540       .  S
C827        H833   1.112       .  S
C828        H834   1.085       .  S
C828        C829   1.371       .  D
C829       C1113   1.496       .  S
C830        H835   1.086       .  S
C830        C831   1.364       .  D
C831        C892   1.495       .  S
C836        C837   1.551       .  S
C836        C842   1.547       .  S
C836        C840   1.543       .  S
C836       C1128   1.524       .  S
C837        H844   1.085       .  S
C837        C838   1.371       .  D
C838        C893   1.499       .  S
C838        C839   1.541       .  S
C839        C843   1.543       .  S
C839        C841   1.543       .  S
C839        H845   1.112       .  S
C840        H846   1.086       .  S
C840        C841   1.360       .  D
C841       C1112   1.493       .  S
C842        H847   1.086       .  S
C842        C843   1.366       .  D
C843       C1067   1.495       .  S
C848        C849   1.535       .  S
C848        C854   1.543       .  S
C848        C852   1.550       .  S
C848       C1133   1.506       .  S
C849        H856   1.086       .  S
C849        C850   1.358       .  D
C850       C1031   1.482       .  S
C850        C851   1.542       .  S
C851        C855   1.543       .  S
C851        C853   1.543       .  S
C851        H857   1.112       .  S
C852        H858   1.086       .  S
C852        C853   1.368       .  D
C853        C952   1.497       .  S
C854        H859   1.086       .  S
C854        C855   1.360       .  D
C855        C895   1.492       .  S
C860        C861   1.548       .  S
C860        C866   1.531       .  S
C860        C864   1.547       .  S
C860       C1140   1.505       .  S
C861        H868   1.086       .  S
C861        C862   1.367       .  D
C862        C894   1.497       .  S
C862        C863   1.544       .  S
C863        C867   1.546       .  S
C863        C865   1.542       .  S
C863        H869   1.111       .  S
C864        H870   1.086       .  S
C864        C865   1.365       .  D
C865       C1066   1.492       .  S
C866        H871   1.086       .  S
C866        C867   1.353       .  D
C867       C1032   1.482       .  S
N872        C876   1.353       .  A
N872        H904   1.040   1_565  S
N873        C880   1.350       .  A
N873       C2421   1.350       .  A
N874        C878   1.350   1_545  A
N874        H905   1.041       .  S
N875        C882   1.353       .  A
N875       C2423   1.353       .  A
C876        C884   1.382       .  A
C876        C892   1.409       .  A
C877        C893   1.407       .  A
C877        C885   1.381       .  A
C878        C886   1.383       .  A
C878        C895   1.404       .  A
C879        C894   1.403       .  A
C879        C887   1.382       .  A
C880        C892   1.405       .  A
C880        C888   1.378       .  A
C881       N2413   1.350   1_455  A
C881        C895   1.403       .  A
C881        C889   1.376       .  A
C882        C890   1.378       .  A
C882        C893   1.410       .  A
C883       N2415   1.353   1_455  A
C883        C891   1.377       .  A
C883        C894   1.408       .  A
C884        H896   1.082       .  S
C885        H897   1.082       .  S
C886        H898   1.082       .  S
C887        H899   1.082       .  S
C888        H900   1.080       .  S
C888       C2429   1.371       .  A
C889        H901   1.080       .  S
C889       C2428   1.371   1_455  A
C890        H902   1.080       .  S
C890       C2431   1.376       .  A
C891        H903   1.080       .  S
C891       C2430   1.376   1_455  A
C906        C907   1.542       .  S
C906        C912   1.548       .  S
C906        C910   1.550       .  S
C906       C1137   1.524       .  S
C907        H914   1.086       .  S
C907        C908   1.362       .  D
C908        C996   1.492       .  S
C908        C909   1.545       .  S
C909        C913   1.547       .  S
C909        C911   1.548       .  S
C909        H915   1.111       .  S
C910        H916   1.086       .  S
C910        C911   1.368       .  D
C911       C1110   1.504       .  S
C912        H917   1.086       .  S
C912        C913   1.368       .  D
C913        C950   1.503       .  S
C918        C919   1.545       .  S
C918        C924   1.538       .  S
C918        C922   1.545       .  S
C918       C1145   1.508       .  S
C919        H926   1.086       .  S
C919        C920   1.364       .  D
C920        C999   1.495       .  S
C920        C921   1.545       .  S
C921        C925   1.542       .  S
C921        C923   1.543       .  S
C921        H927   1.112       .  S
C922        H928   1.086       .  S
C922        C923   1.365       .  D
C923        C951   1.492       .  S
C924        H929   1.086       .  S
C924        C925   1.358       .  D
C925       C1030   1.484       .  S
N930       C2475   1.350       .  A
N930        C934   1.354       .  A
N930        H962   1.041       .  S
N931        C938   1.352   1_556  A
N931       C1324   1.349       .  A
N932       C2477   1.351       .  A
N932        C936   1.349       .  A
N932        H963   1.041       .  S
N933        C940   1.351   1_556  A
N933       C1326   1.354       .  A
C934        C942   1.381       .  A
C934        C950   1.407       .  A
C935       N2470   1.350       .  A
C935        C951   1.405       .  A
C935        C943   1.382       .  A
C936        C944   1.383       .  A
C936        C953   1.404       .  A
C937       N2472   1.351       .  A
C937        C952   1.404       .  A
C937        C945   1.382       .  A
C938        C950   1.404       .  A
C938        C946   1.375       .  A
C939       N1316   1.351       .  A
C939        C953   1.405       .  A
C939        C947   1.377       .  A
C940        C948   1.378       .  A
C940        C951   1.408       .  A
C941       N1318   1.353       .  A
C941        C949   1.377       .  A
C941        C952   1.406       .  A
C942        H954   1.082       .  S
C942       C2483   1.381       .  A
C943        H955   1.082       .  S
C943       C2482   1.381   1_455  A
C944        H956   1.082       .  S
C944       C2485   1.381       .  A
C945        H957   1.082       .  S
C945       C2484   1.381   1_455  A
C946        H958   1.080       .  S
C946       C1332   1.372   1_554  A
C947        H959   1.080       .  S
C947       C1331   1.373       .  A
C948        H960   1.080       .  S
C948       C1334   1.374   1_554  A
C949        H961   1.080       .  S
C949       C1333   1.372       .  A
C964        C965   1.541       .  S
C964        C970   1.545       .  S
C964        C968   1.542       .  S
C964       C1152   1.505       .  S
C965        H972   1.086       .  S
C965        C966   1.359       .  D
C966       C1065   1.489       .  S
C966        C967   1.543       .  S
C967        C971   1.543       .  S
C967        C969   1.546       .  S
C967        H973   1.111       .  S
C968        H974   1.086       .  S
C968        C969   1.361       .  D
C969        C998   1.493       .  S
C970        H975   1.086       .  S
C970        C971   1.367       .  D
C971       C1033   1.491       .  S
N976        C980   1.350       .  A
N976       H1008   1.042       .  S
N977        C984   1.350       .  A
N977       C2525   1.350       .  A
N978        C982   1.351       .  A
N978       H1009   1.043       .  S
N979        C986   1.350       .  A
N979       C2527   1.350       .  A
C980        C988   1.382       .  A
C980        C996   1.401       .  A
C981        C997   1.405       .  A
C981        C989   1.382       .  A
C982        C990   1.382       .  A
C982        C999   1.404       .  A
C983        C998   1.405       .  A
C983        C991   1.382       .  A
C984        C996   1.402       .  A
C984        C992   1.377       .  A
C985       N2517   1.350   1_455  A
C985        C999   1.402       .  A
C985        C993   1.377       .  A
C986        C994   1.377       .  A
C986        C997   1.402       .  A
C987       N2519   1.350   1_455  A
C987        C995   1.377       .  A
C987        C998   1.402       .  A
C988       H1000   1.082       .  S
C989       H1001   1.082       .  S
C990       H1002   1.082       .  S
C991       H1003   1.082       .  S
C992       H1004   1.080       .  S
C992       C2533   1.373       .  A
C993       H1005   1.080       .  S
C993       C2532   1.373   1_455  A
C994       H1006   1.080       .  S
C994       C2535   1.370       .  A
C995       H1007   1.080       .  S
C995       C2534   1.370   1_455  A
C997       C1085   1.494       .  S
N1010      C1400   1.349   1_554  A
N1010      C1014   1.347       .  A
N1010      H1042   1.042       .  S
N1011      C1019   1.349       .  A
N1012      C1402   1.351   1_554  A
N1012      C1016   1.351       .  A
N1012      H1043   1.041       .  S
N1013      C1021   1.348       .  A
C1014      C1022   1.382       .  A
C1014      C1030   1.399       .  A
C1015      N1395   1.348       .  A
C1015      C1031   1.397       .  A
C1015      C1023   1.382       .  A
C1016      C1024   1.382       .  A
C1016      C1033   1.405       .  A
C1017      N1397   1.347       .  A
C1017      C1032   1.401       .  A
C1017      C1025   1.384       .  A
C1018      C1030   1.399       .  A
C1018      C1026   1.376       .  A
C1019      C1033   1.402       .  A
C1019      C1027   1.378       .  A
C1020      C1028   1.376       .  A
C1020      C1031   1.397       .  A
C1021      C1029   1.377       .  A
C1021      C1032   1.399       .  A
C1022      H1034   1.082       .  S
C1022      C1408   1.381   1_554  A
C1023      H1035   1.082       .  S
C1023      C1407   1.378       .  A
C1024      H1036   1.082       .  S
C1024      C1410   1.382   1_554  A
C1025      H1037   1.082       .  S
C1025      C1409   1.380       .  A
C1026      H1038   1.079       .  S
C1027      H1039   1.081       .  S
C1028      H1040   1.079       .  S
C1029      H1041   1.079       .  S
N1044      C2589   1.348       .  A
N1044      C1048   1.349       .  A
N1044      H1076   1.042       .  S
N1045      C1052   1.350   1_556  A
N1045      C1438   1.349       .  A
N1046      C2591   1.352       .  A
N1046      C1050   1.353       .  A
N1046      H1077   1.040       .  S
N1047      C1054   1.351   1_556  A
N1047      C1440   1.351       .  A
C1048      C1056   1.382       .  A
C1048      C1064   1.400       .  A
C1049      N2584   1.348   1_455  A
C1049      C1065   1.399       .  A
C1049      C1057   1.382       .  A
C1050      C1058   1.381       .  A
C1050      C1067   1.407       .  A
C1051      N2586   1.352   1_455  A
C1051      C1066   1.407       .  A
C1051      C1059   1.381       .  A
C1052      C1064   1.401       .  A
C1052      C1060   1.376       .  A
C1053      N1430   1.350       .  A
C1053      C1067   1.404       .  A
C1053      C1061   1.377       .  A
C1054      C1062   1.377       .  A
C1054      C1065   1.403       .  A
C1055      N1432   1.349       .  A
C1055      C1063   1.378       .  A
C1055      C1066   1.404       .  A
C1056      H1068   1.082       .  S
C1056      C2597   1.379       .  A
C1057      H1069   1.082       .  S
C1057      C2596   1.379   1_455  A
C1058      H1070   1.082       .  S
C1058      C2599   1.381       .  A
C1059      H1071   1.082       .  S
C1059      C2598   1.381   1_455  A
C1060      H1072   1.080       .  S
C1060      C1446   1.372   1_554  A
C1061      H1073   1.080       .  S
C1061      C1445   1.372       .  A
C1062      H1074   1.080       .  S
C1062      C1448   1.372   1_554  A
C1063      H1075   1.080       .  S
C1063      C1447   1.372       .  A
C1064      C1080   1.492       .  S
C1078      C1079   1.537       .  S
C1078      C1084   1.544       .  S
C1078      C1082   1.552       .  S
C1078      C1148   1.515       .  S
C1079      H1086   1.086       .  S
C1079      C1080   1.358       .  D
C1080      C1081   1.549       .  S
C1081      C1085   1.546       .  S
C1081      C1083   1.546       .  S
C1081      H1087   1.111       .  S
C1082      H1088   1.085       .  S
C1082      C1083   1.370       .  D
C1083      C1111   1.504       .  S
C1084      H1089   1.086       .  S
C1084      C1085   1.362       .  D
N1090      C1094   1.355       .  A
N1090      H1122   1.034       .  S
N1091      C1098   1.349   1_556  A
N1091      C1484   1.349       .  A
N1092      C1096   1.354       .  A
N1092      H1123   1.030       .  S
N1093      C1100   1.349       .  A
N1093      C1486   1.346   1_554  A
C1094      C1102   1.378       .  A
C1094      C1110   1.418       .  A
C1095      C1111   1.418       .  A
C1095      C1103   1.377       .  A
C1096      C1104   1.379       .  A
C1096      C1113   1.411       .  A
C1097      C1112   1.411       .  A
C1097      C1105   1.381       .  A
C1098      C1110   1.409       .  A
C1098      C1106   1.381       .  A
C1099      N1476   1.348       .  A
C1099      C1113   1.408       .  A
C1099      C1107   1.381       .  A
C1100      C1108   1.380       .  A
C1100      C1111   1.407       .  A
C1101      N1478   1.348       .  A
C1101      C1109   1.382       .  A
C1101      C1112   1.409       .  A
C1102      H1114   1.079       .  S
C1103      H1115   1.079       .  S
C1104      H1116   1.081       .  S
C1105      H1117   1.081       .  S
C1106      H1118   1.082       .  S
C1106      C1492   1.381   1_554  A
C1107      H1119   1.082       .  S
C1107      C1491   1.381       .  A
C1108      H1120   1.082       .  S
C1108      C1494   1.380   1_554  A
C1109      H1121   1.082       .  S
C1109      C1493   1.380       .  A
C1124      H1126   1.087       .  S
C1124      C1125   1.345       .  D
C1125      H1127   1.086       .  S
C1128      H1130   1.086       .  S
C1128      C1129   1.345       .  D
C1129      H1131   1.086       .  S
C1132      H1134   1.087       .  S
C1132      C1133   1.334       .  D
C1133      H1135   1.087       .  S
C1136      H1138   1.087       .  S
C1136      C1137   1.347       .  D
C1137      H1139   1.086       .  S
C1140      H1142   1.088       .  S
C1140      C1141   1.332       .  D
C1141      H1143   1.087       .  S
C1144      H1146   1.087       .  S
C1144      C1145   1.338       .  D
C1145      H1147   1.087       .  S
C1148      H1150   1.087       .  S
C1148      C1149   1.336       .  D
C1149      H1151   1.087       .  S
C1152      H1154   1.086       .  S
C1152      C1153   1.340       .  D
C1153      H1155   1.087       .  S
C1156      N1174   1.346       .  A
C1156      C1193   1.462       .  S
C1156      C1538   1.470       .  S
N1157      N1174   1.324       .  A
N1157      N1179   1.320       .  A
N1157     Co1194   2.078       .  S
C1158      N1183   1.351       .  A
C1158      C1196   1.473       .  S
C1158      H1203   1.081       .  S
H1159      C1200   1.081       .  S
C1160      N1184   1.339       .  A
C1160      C1164   1.451       .  S
C1160      H1189   1.082       .  S
Co1161     N1179   2.082       .  S
Co1161     N1169   2.081       .  S
Co1161     N1201   2.079       .  S
Co1161     N1177   2.064       .  S
Co1161    Cl1205   2.436       .  S
N1162      C1200   1.344       .  A
N1162      N1169   1.321       .  A
N1162     Co1163   2.097       .  S
Co1163     N1166   2.114       .  S
Co1163     N1183   2.121       .  S
Co1163     N1170   2.089       .  S
Co1163    Cl1205   2.469       .  S
C1164      N1202   1.358       .  A
C1164      C1521   1.482       .  S
N1165      N1172   1.320       .  A
N1165      N1195   1.328       .  A
N1165     Co1198   2.098       .  S
N1166      N1184   1.321       .  A
N1166      N1202   1.330       .  A
N1167      C1196   1.341       .  A
N1167      N1177   1.320       .  A
H1168      C1193   1.081       .  S
N1169      N1190   1.325       .  A
N1170      N1188   1.322       .  A
N1170      N1175   1.326       .  A
C1171      N1175   1.349       .  A
C1171      C1199   1.464       .  S
C1171      C1510   1.480       .  S
N1172      C1187   1.339       .  A
N1172     Co1194   2.077       .  S
C1173      N1201   1.338       .  A
C1173      C1176   1.450       .  S
C1173      H1207   1.082       .  S
C1176      N1197   1.356       .  A
C1176      C1526   1.479       .  S
N1177      N1183   1.322       .  A
N1178      C1204   1.344       .  A
N1178      N1180   1.321       .  A
N1178     Co1194   2.095       .  S
N1179      C1193   1.340       .  A
N1180      N1208   1.323       .  A
N1180     Co1198   2.082       .  S
H1181      C1204   1.081       .  S
H1182      C1199   1.081       .  S
N1184     Co1198   2.076       .  S
N1185      N1197   1.329       .  A
N1185      N1201   1.320       .  A
N1185     Co1194   2.100       .  S
C1186      N1190   1.347       .  A
C1186      C1200   1.466       .  S
C1186      C1529   1.480       .  S
C1187      C1206   1.451       .  S
C1187      H1191   1.081       .  S
N1188      C1199   1.343       .  A
N1188     Co1198   2.097       .  S
C1192      N1208   1.346       .  A
C1192      C1204   1.467       .  S
C1192      C1514   1.476       .  S
Co1194    Cl1205   2.471       .  S
N1195      C1206   1.354       .  A
C1196      C1517   1.476       .  S
Co1198    Cl1205   2.438       .  S
C1206      C1534   1.473       .  S
C1209      C1210   1.542       .  S
C1209      C1215   1.546       .  S
C1209      C1213   1.548       .  S
C1209      C1509   1.516       .  S
C1210      H1217   1.086       .  S
C1210      C1211   1.360       .  D
C1211      C1338   1.490       .  S
C1211      C1212   1.543       .  S
C1212      C1216   1.542       .  S
C1212      C1214   1.542       .  S
C1212      H1218   1.112       .  S
C1213      H1219   1.085       .  S
C1213      C1214   1.368       .  D
C1214      C1498   1.496       .  S
C1215      H1220   1.086       .  S
C1215      C1216   1.366       .  D
C1216      C1277   1.496       .  S
C1221      C1222   1.547       .  S
C1221      C1227   1.546       .  S
C1221      C1225   1.539       .  S
C1221      C1513   1.513       .  S
C1222      H1229   1.086       .  S
C1222      C1223   1.368       .  D
C1223      C1278   1.495       .  S
C1223      C1224   1.541       .  S
C1224      C1228   1.545       .  S
C1224      C1226   1.545       .  S
C1224      H1230   1.112       .  S
C1225      H1231   1.086       .  S
C1225      C1226   1.358       .  D
C1226      C1497   1.491       .  S
C1227      H1232   1.086       .  S
C1227      C1228   1.365       .  D
C1228      C1452   1.494       .  S
C1233      C1234   1.540       .  S
C1233      C1239   1.544       .  S
C1233      C1237   1.553       .  S
C1233      C1518   1.518       .  S
C1234      H1241   1.086       .  S
C1234      C1235   1.361       .  D
C1235      C1416   1.487       .  S
C1235      C1236   1.543       .  S
C1236      C1240   1.546       .  S
C1236      C1238   1.542       .  S
C1236      H1242   1.112       .  S
C1237      H1243   1.085       .  S
C1237      C1238   1.370       .  D
C1238      C1337   1.501       .  S
C1239      H1244   1.086       .  S
C1239      C1240   1.363       .  D
C1240      C1280   1.497       .  S
C1245      C1246   1.545       .  S
C1245      C1251   1.542       .  S
C1245      C1249   1.556       .  S
C1245      C1525   1.523       .  S
C1246      H1253   1.086       .  S
C1246      C1247   1.364       .  D
C1247      C1279   1.494       .  S
C1247      C1248   1.542       .  S
C1248      C1252   1.547       .  S
C1248      C1250   1.543       .  S
C1248      H1254   1.111       .  S
C1249      H1255   1.083       .  S
C1249      C1250   1.368       .  D
C1250      C1451   1.498       .  S
C1251      H1256   1.086       .  S
C1251      C1252   1.361       .  D
C1252      C1417   1.497       .  S
N1257      C1261   1.352   1_545  A
N1257      H1289   1.040       .  S
N1258      C1265   1.351       .  A
N1258      C2806   1.352       .  A
N1259      C1263   1.351   1_545  A
N1259      H1290   1.041       .  S
N1260      C1267   1.352       .  A
N1260      C2808   1.351       .  A
C1261      C1269   1.382       .  A
C1261      C1277   1.407       .  A
C1262      C1278   1.407       .  A
C1262      C1270   1.382       .  A
C1263      C1271   1.383       .  A
C1263      C1280   1.406       .  A
C1264      C1279   1.402       .  A
C1264      C1272   1.381       .  A
C1265      C1277   1.406       .  A
C1265      C1273   1.377       .  A
C1266      N2798   1.352       .  A
C1266      C1280   1.404       .  A
C1266      C1274   1.376       .  A
C1267      C1275   1.378       .  A
C1267      C1278   1.408       .  A
C1268      N2800   1.351   1_455  A
C1268      C1276   1.377       .  A
C1268      C1279   1.407       .  A
C1269      H1281   1.082       .  S
C1270      H1282   1.082       .  S
C1271      H1283   1.082       .  S
C1272      H1284   1.082       .  S
C1273      H1285   1.080       .  S
C1273      C2814   1.371       .  A
C1274      H1286   1.080       .  S
C1274      C2813   1.371   1_455  A
C1275      H1287   1.080       .  S
C1275      C2816   1.375       .  A
C1276      H1288   1.080       .  S
C1276      C2815   1.375   1_455  A
C1291      C1292   1.546       .  S
C1291      C1297   1.560       .  S
C1291      C1295   1.537       .  S
C1291      C1522   1.523       .  S
C1292      H1299   1.086       .  S
C1292      C1293   1.364       .  D
C1293      C1381   1.495       .  S
C1293      C1294   1.542       .  S
C1294      C1298   1.543       .  S
C1294      C1296   1.547       .  S
C1294      H1300   1.111       .  S
C1295      H1301   1.086       .  S
C1295      C1296   1.358       .  D
C1296      C1495   1.492       .  S
C1297      H1302   1.083       .  S
C1297      C1298   1.372       .  D
C1298      C1335   1.504       .  S
C1303      C1304   1.550       .  S
C1303      C1309   1.537       .  S
C1303      C1307   1.546       .  S
C1303      C1530   1.516       .  S
C1304      H1311   1.085       .  S
C1304      C1305   1.370       .  D
C1305      C1384   1.498       .  S
C1305      C1306   1.543       .  S
C1306      C1310   1.544       .  S
C1306      C1308   1.545       .  S
C1306      H1312   1.112       .  S
C1307      H1313   1.086       .  S
C1307      C1308   1.366       .  D
C1308      C1336   1.496       .  S
C1309      H1314   1.086       .  S
C1309      C1310   1.356       .  D
C1310      C1415   1.486       .  S
N1315      C2860   1.352       .  A
N1315      C1319   1.355       .  A
N1315      H1347   1.041       .  S
N1316      C1323   1.352       .  A
N1317      C2862   1.352       .  A
N1317      C1321   1.349       .  A
N1317      H1348   1.041       .  S
N1318      C1325   1.351       .  A
C1319      C1327   1.381       .  A
C1319      C1335   1.410       .  A
C1320      N2855   1.352       .  A
C1320      C1336   1.408       .  A
C1320      C1328   1.381       .  A
C1321      C1329   1.383       .  A
C1321      C1338   1.405       .  A
C1322      N2857   1.352       .  A
C1322      C1337   1.405       .  A
C1322      C1330   1.382       .  A
C1323      C1335   1.406       .  A
C1323      C1331   1.376       .  A
C1324      C1338   1.404       .  A
C1324      C1332   1.377       .  A
C1325      C1333   1.378       .  A
C1325      C1336   1.407       .  A
C1326      C1334   1.376       .  A
C1326      C1337   1.408       .  A
C1327      H1339   1.082       .  S
C1327      C2868   1.382       .  A
C1328      H1340   1.082       .  S
C1328      C2867   1.382   1_455  A
C1329      H1341   1.082       .  S
C1329      C2870   1.381       .  A
C1330      H1342   1.082       .  S
C1330      C2869   1.381   1_455  A
C1331      H1343   1.080       .  S
C1332      H1344   1.080       .  S
C1333      H1345   1.080       .  S
C1334      H1346   1.080       .  S
C1349      C1350   1.542       .  S
C1349      C1355   1.545       .  S
C1349      C1353   1.542       .  S
C1349      C1537   1.506       .  S
C1350      H1357   1.086       .  S
C1350      C1351   1.360       .  D
C1351      C1450   1.493       .  S
C1351      C1352   1.546       .  S
C1352      C1356   1.545       .  S
C1352      C1354   1.544       .  S
C1352      H1358   1.111       .  S
C1353      H1359   1.086       .  S
C1353      C1354   1.360       .  D
C1354      C1383   1.490       .  S
C1355      H1360   1.086       .  S
C1355      C1356   1.366       .  D
C1356      C1418   1.492       .  S
N1361      C1365   1.350   1_545  A
N1361      H1393   1.043       .  S
N1362      C1369   1.352       .  A
N1362      C2910   1.352       .  A
N1363      C1367   1.352   1_545  A
N1363      H1394   1.042       .  S
N1364      C1371   1.349       .  A
N1364      C2912   1.350       .  A
C1365      C1373   1.381       .  A
C1365      C1381   1.401       .  A
C1366      C1382   1.402       .  A
C1366      C1374   1.383       .  A
C1367      C1375   1.381       .  A
C1367      C1384   1.405       .  A
C1368      C1383   1.402       .  A
C1368      C1376   1.382       .  A
C1369      C1381   1.406       .  A
C1369      C1377   1.377       .  A
C1370      N2902   1.352       .  A
C1370      C1384   1.407       .  A
C1370      C1378   1.377       .  A
C1371      C1379   1.377       .  A
C1371      C1382   1.400       .  A
C1372      N2904   1.350       .  A
C1372      C1380   1.377       .  A
C1372      C1383   1.400       .  A
C1373      H1385   1.082       .  S
C1374      H1386   1.082       .  S
C1375      H1387   1.082       .  S
C1376      H1388   1.082       .  S
C1377      H1389   1.081       .  S
C1377      C2918   1.375       .  A
C1378      H1390   1.081       .  S
C1378      C2917   1.375   1_455  A
C1379      H1391   1.080       .  S
C1379      C2920   1.370       .  A
C1380      H1392   1.080       .  S
C1380      C2919   1.370   1_455  A
C1382      C1470   1.489       .  S
N1395      C1399   1.346       .  A
N1395      H1427   1.042       .  S
N1396      C1404   1.352       .  A
N1397      C1401   1.349       .  A
N1397      H1428   1.042       .  S
N1398      C1406   1.352       .  A
C1399      C1407   1.381       .  A
C1399      C1415   1.396       .  A
C1400      C1416   1.400       .  A
C1400      C1408   1.382       .  A
C1401      C1409   1.382       .  A
C1401      C1418   1.400       .  A
C1402      C1417   1.405       .  A
C1402      C1410   1.383       .  A
C1403      C1415   1.401       .  A
C1403      C1411   1.376       .  A
C1404      C1418   1.405       .  A
C1404      C1412   1.376       .  A
C1405      C1413   1.376       .  A
C1405      C1416   1.397       .  A
C1406      C1414   1.377       .  A
C1406      C1417   1.407       .  A
C1407      H1419   1.082       .  S
C1408      H1420   1.082       .  S
C1409      H1421   1.082       .  S
C1410      H1422   1.082       .  S
C1411      H1423   1.080       .  S
C1412      H1424   1.080       .  S
C1413      H1425   1.080       .  S
C1414      H1426   1.080       .  S
N1429      C2974   1.350       .  A
N1429      C1433   1.350       .  A
N1429      H1461   1.042       .  S
N1430      C1437   1.350       .  A
N1431      C2976   1.353       .  A
N1431      C1435   1.352       .  A
N1431      H1462   1.040       .  S
N1432      C1439   1.350       .  A
C1433      C1441   1.383       .  A
C1433      C1449   1.404       .  A
C1434      N2969   1.350   1_455  A
C1434      C1450   1.404       .  A
C1434      C1442   1.383       .  A
C1435      C1443   1.382       .  A
C1435      C1452   1.409       .  A
C1436      N2971   1.353   1_455  A
C1436      C1451   1.410       .  A
C1436      C1444   1.382       .  A
C1437      C1449   1.402       .  A
C1437      C1445   1.377       .  A
C1438      C1452   1.403       .  A
C1438      C1446   1.378       .  A
C1439      C1447   1.377       .  A
C1439      C1450   1.402       .  A
C1440      C1448   1.378       .  A
C1440      C1451   1.405       .  A
C1441      H1453   1.082       .  S
C1441      C2982   1.381       .  A
C1442      H1454   1.082       .  S
C1442      C2981   1.381   1_455  A
C1443      H1455   1.082       .  S
C1443      C2984   1.383       .  A
C1444      H1456   1.082       .  S
C1444      C2983   1.383   1_455  A
C1445      H1457   1.080       .  S
C1446      H1458   1.080       .  S
C1447      H1459   1.080       .  S
C1448      H1460   1.080       .  S
C1449      C1465   1.493       .  S
C1463      C1464   1.541       .  S
C1463      C1469   1.540       .  S
C1463      C1467   1.550       .  S
C1463      C1533   1.512       .  S
C1464      H1471   1.086       .  S
C1464      C1465   1.361       .  D
C1465      C1466   1.548       .  S
C1466      C1470   1.545       .  S
C1466      C1468   1.547       .  S
C1466      H1472   1.111       .  S
C1467      H1473   1.085       .  S
C1467      C1468   1.370       .  D
C1468      C1496   1.504       .  S
C1469      H1474   1.086       .  S
C1469      C1470   1.359       .  D
N1475      C1479   1.351   1_545  A
N1475      H1507   1.028       .  S
N1476      C1483   1.346       .  A
N1477      C1481   1.352       .  A
N1477      H1508   1.034       .  S
N1478      C1485   1.351       .  A
C1479      C1487   1.378       .  A
C1479      C1495   1.414       .  A
C1480      C1496   1.416       .  A
C1480      C1488   1.377       .  A
C1481      C1489   1.380       .  A
C1481      C1498   1.411       .  A
C1482      C1497   1.411       .  A
C1482      C1490   1.381       .  A
C1483      C1495   1.408       .  A
C1483      C1491   1.382       .  A
C1484      C1498   1.410       .  A
C1484      C1492   1.382       .  A
C1485      C1493   1.379       .  A
C1485      C1496   1.407       .  A
C1486      C1494   1.383       .  A
C1486      C1497   1.409       .  A
C1487      H1499   1.079       .  S
C1488      H1500   1.079       .  S
C1489      H1501   1.081       .  S
C1490      H1502   1.081       .  S
C1491      H1503   1.082       .  S
C1492      H1504   1.082       .  S
C1493      H1505   1.082       .  S
C1494      H1506   1.081       .  S
C1509      H1511   1.086       .  S
C1509      C1510   1.343       .  D
C1510      H1512   1.086       .  S
C1513      H1515   1.087       .  S
C1513      C1514   1.339       .  D
C1514      H1516   1.087       .  S
C1517      H1519   1.087       .  S
C1517      C1518   1.339       .  D
C1518      H1520   1.087       .  S
C1521      H1523   1.082       .  S
C1521      C1522   1.343       .  D
C1522      H1524   1.087       .  S
C1525      H1527   1.087       .  S
C1525      C1526   1.344       .  D
C1526      H1528   1.082       .  S
C1529      H1531   1.086       .  S
C1529      C1530   1.340       .  D
C1530      H1532   1.087       .  S
C1533      H1535   1.087       .  S
C1533      C1534   1.340       .  D
C1534      H1536   1.087       .  S
C1537      H1539   1.086       .  S
C1537      C1538   1.340       .  D
C1538      H1540   1.087       .  S
C1541      N1559   1.346       .  A
C1541      C1578   1.463       .  S
C1541      C1923   1.472       .  S
N1542      N1559   1.323       .  A
N1542      N1564   1.320       .  A
N1542     Co1579   2.081       .  S
C1543      N1568   1.343       .  A
C1543      C1581   1.457       .  S
C1543      H1588   1.081       .  S
H1544      C1585   1.081       .  S
C1545      N1569   1.341       .  A
C1545      C1549   1.457       .  S
C1545      H1574   1.082       .  S
Co1546     N1564   2.086       .  S
Co1546     N1554   2.076       .  S
Co1546     N1586   2.070       .  S
Co1546     N1562   2.076       .  S
Co1546    Cl1590   2.439       .  S
N1547      C1585   1.344       .  A
N1547      N1554   1.321       .  A
N1547     Co1548   2.096       .  S
Co1548     N1551   2.093       .  S
Co1548     N1568   2.086       .  S
Co1548     N1555   2.081       .  S
Co1548    Cl1590   2.464       .  S
C1549      N1587   1.352       .  A
C1549      C1906   1.479       .  S
N1550      N1557   1.322       .  A
N1550      N1580   1.329       .  A
N1550     Co1583   2.116       .  S
N1551      N1569   1.322       .  A
N1551      N1587   1.327       .  A
N1552      C1581   1.348       .  A
N1552      N1562   1.323       .  A
H1553      C1578   1.081       .  S
N1554      N1575   1.323       .  A
N1555      N1573   1.321       .  A
N1555      N1560   1.324       .  A
C1556      N1560   1.346       .  A
C1556      C1584   1.469       .  S
C1556      C1895   1.482       .  S
N1557      C1572   1.339       .  A
N1557     Co1579   2.075       .  S
C1558      N1586   1.337       .  A
C1558      C1561   1.450       .  S
C1558      H1592   1.082       .  S
C1561      N1582   1.354       .  A
C1561      C1911   1.471       .  S
N1562      N1568   1.319       .  A
N1563      C1589   1.344       .  A
N1563      N1565   1.320       .  A
N1563     Co1579   2.089       .  S
N1564      C1578   1.342       .  A
N1565      N1593   1.322       .  A
N1565     Co1583   2.077       .  S
H1566      C1589   1.082       .  S
H1567      C1584   1.081       .  S
N1569     Co1583   2.087       .  S
N1570      N1582   1.326       .  A
N1570      N1586   1.319       .  A
N1570     Co1579   2.091       .  S
C1571      N1575   1.346       .  A
C1571      C1585   1.468       .  S
C1571      C1914   1.478       .  S
C1572      C1591   1.450       .  S
C1572      H1576   1.082       .  S
N1573      C1584   1.348       .  A
N1573     Co1583   2.111       .  S
C1577      N1593   1.344       .  A
C1577      C1589   1.467       .  S
C1577      C1899   1.473       .  S
Co1579    Cl1590   2.464       .  S
N1580      C1591   1.358       .  A
C1581      C1902   1.470       .  S
Co1583    Cl1590   2.441       .  S
C1591      C1919   1.480       .  S
C1594      C1595   1.544       .  S
C1594      C1600   1.542       .  S
C1594      C1598   1.554       .  S
C1594      C1894   1.520       .  S
C1595      H1602   1.086       .  S
C1595      C1596   1.361       .  D
C1596      C1723   1.494       .  S
C1596      C1597   1.543       .  S
C1597      C1601   1.540       .  S
C1597      C1599   1.540       .  S
C1597      H1603   1.112       .  S
C1598      H1604   1.085       .  S
C1598      C1599   1.373       .  D
C1599      C1883   1.498       .  S
C1600      H1605   1.086       .  S
C1600      C1601   1.362       .  D
C1601      C1662   1.490       .  S
C1606      C1607   1.548       .  S
C1606      C1612   1.549       .  S
C1606      C1610   1.536       .  S
C1606      C1898   1.511       .  S
C1607      H1614   1.086       .  S
C1607      C1608   1.367       .  D
C1608      C1663   1.497       .  S
C1608      C1609   1.543       .  S
C1609      C1613   1.545       .  S
C1609      C1611   1.540       .  S
C1609      H1615   1.112       .  S
C1610      H1616   1.086       .  S
C1610      C1611   1.357       .  D
C1611      C1882   1.481       .  S
C1612      H1617   1.086       .  S
C1612      C1613   1.366       .  D
C1613      C1837   1.497       .  S
C1618      C1619   1.544       .  S
C1618      C1624   1.542       .  S
C1618      C1622   1.544       .  S
C1618      C1903   1.506       .  S
C1619      H1626   1.086       .  S
C1619      C1620   1.364       .  D
C1620      C1801   1.488       .  S
C1620      C1621   1.542       .  S
C1621      C1625   1.543       .  S
C1621      C1623   1.543       .  S
C1621      H1627   1.112       .  S
C1622      H1628   1.086       .  S
C1622      C1623   1.363       .  D
C1623      C1722   1.493       .  S
C1624      H1629   1.086       .  S
C1624      C1625   1.361       .  D
C1625      C1665   1.491       .  S
C1630      C1631   1.545       .  S
C1630      C1636   1.536       .  S
C1630      C1634   1.554       .  S
C1630      C1910   1.513       .  S
C1631      H1638   1.086       .  S
C1631      C1632   1.364       .  D
C1632      C1664   1.496       .  S
C1632      C1633   1.543       .  S
C1633      C1637   1.543       .  S
C1633      C1635   1.540       .  S
C1633      H1639   1.112       .  S
C1634      H1640   1.083       .  S
C1634      C1635   1.365       .  D
C1635      C1836   1.492       .  S
C1636      H1641   1.086       .  S
C1636      C1637   1.358       .  D
C1637      C1802   1.484       .  S
N1642      C2417   1.352       .  A
N1642      C1646   1.353       .  A
N1642      H1674   1.040       .  S
N1643      C1650   1.349       .  A
N1644      C2419   1.350       .  A
N1644      C1648   1.351       .  A
N1644      H1675   1.042       .  S
N1645      C1652   1.352       .  A
C1646      C1654   1.382       .  A
C1646      C1662   1.408       .  A
C1647      N2412   1.352   1_545  A
C1647      C1663   1.409       .  A
C1647      C1655   1.383       .  A
C1648      C1656   1.383       .  A
C1648      C1665   1.405       .  A
C1649      N2414   1.350       .  A
C1649      C1664   1.404       .  A
C1649      C1657   1.382       .  A
C1650      C1662   1.402       .  A
C1650      C1658   1.378       .  A
C1651      C1665   1.400       .  A
C1651      C1659   1.376       .  A
C1652      C1660   1.377       .  A
C1652      C1663   1.407       .  A
C1653      C1661   1.376       .  A
C1653      C1664   1.405       .  A
C1654      H1666   1.082       .  S
C1654      C2425   1.380       .  A
C1655      H1667   1.082       .  S
C1655      C2424   1.383   1_545  A
C1656      H1668   1.082       .  S
C1656      C2427   1.381       .  A
C1657      H1669   1.082       .  S
C1657      C2426   1.381   1_545  A
C1658      H1670   1.079       .  S
C1659      H1671   1.080       .  S
C1660      H1672   1.080       .  S
C1661      H1673   1.080       .  S
C1676      C1677   1.548       .  S
C1676      C1682   1.552       .  S
C1676      C1680   1.541       .  S
C1676      C1907   1.523       .  S
C1677      H1684   1.086       .  S
C1677      C1678   1.367       .  D
C1678      C1766   1.499       .  S
C1678      C1679   1.543       .  S
C1679      C1683   1.546       .  S
C1679      C1681   1.549       .  S
C1679      H1685   1.111       .  S
C1680      H1686   1.086       .  S
C1680      C1681   1.361       .  D
C1681      C1880   1.499       .  S
C1682      H1687   1.082       .  S
C1682      C1683   1.364       .  D
C1683      C1720   1.496       .  S
C1688      C1689   1.550       .  S
C1688      C1694   1.539       .  S
C1688      C1692   1.545       .  S
C1688      C1915   1.515       .  S
C1689      H1696   1.085       .  S
C1689      C1690   1.370       .  D
C1690      C1769   1.499       .  S
C1690      C1691   1.543       .  S
C1691      C1695   1.545       .  S
C1691      C1693   1.542       .  S
C1691      H1697   1.112       .  S
C1692      H1698   1.086       .  S
C1692      C1693   1.364       .  D
C1693      C1721   1.489       .  S
C1694      H1699   1.086       .  S
C1694      C1695   1.357       .  D
C1695      C1800   1.492       .  S
N1700      C1704   1.352       .  A
N1700      H1732   1.041       .  S
N1701      C1708   1.349       .  A
N1701      C2094   1.349   1_554  A
N1702      C1706   1.350   1_455  A
N1702      H1733   1.042       .  S
N1703      C1710   1.349       .  A
N1703      C2096   1.351   1_554  A
C1704      C1712   1.382       .  A
C1704      C1720   1.407       .  A
C1705      C1721   1.405       .  A
C1705      C1713   1.382       .  A
C1706      C1714   1.383       .  A
C1706      C1723   1.403       .  A
C1707      C1722   1.403       .  A
C1707      C1715   1.383       .  A
C1708      C1720   1.400       .  A
C1708      C1716   1.377       .  A
C1709      N2086   1.351       .  A
C1709      C1723   1.403       .  A
C1709      C1717   1.375       .  A
C1710      C1718   1.378       .  A
C1710      C1721   1.403       .  A
C1711      N2088   1.352       .  A
C1711      C1719   1.377       .  A
C1711      C1722   1.404       .  A
C1712      H1724   1.082       .  S
C1713      H1725   1.082       .  S
C1714      H1726   1.082       .  S
C1715      H1727   1.082       .  S
C1716      H1728   1.080       .  S
C1716      C2102   1.371   1_554  A
C1717      H1729   1.080       .  S
C1717      C2101   1.372       .  A
C1718      H1730   1.080       .  S
C1718      C2104   1.372   1_554  A
C1719      H1731   1.080       .  S
C1719      C2103   1.372       .  A
C1734      C1735   1.540       .  S
C1734      C1740   1.546       .  S
C1734      C1738   1.545       .  S
C1734      C1922   1.509       .  S
C1735      H1742   1.086       .  S
C1735      C1736   1.360       .  D
C1736      C1835   1.485       .  S
C1736      C1737   1.540       .  S
C1737      C1741   1.540       .  S
C1737      C1739   1.545       .  S
C1737      H1743   1.112       .  S
C1738      H1744   1.086       .  S
C1738      C1739   1.364       .  D
C1739      C1768   1.497       .  S
C1740      H1745   1.086       .  S
C1740      C1741   1.365       .  D
C1741      C1803   1.488       .  S
N1746      C2521   1.351       .  A
N1746      C1750   1.351       .  A
N1746      H1778   1.042       .  S
N1747      C1754   1.353       .  A
N1748      C2523   1.351       .  A
N1748      C1752   1.351       .  A
N1748      H1779   1.042       .  S
N1749      C1756   1.351       .  A
C1750      C1758   1.382       .  A
C1750      C1766   1.405       .  A
C1751      N2516   1.350   1_545  A
C1751      C1767   1.402       .  A
C1751      C1759   1.382       .  A
C1752      C1760   1.381       .  A
C1752      C1769   1.405       .  A
C1753      N2518   1.351   1_545  A
C1753      C1768   1.404       .  A
C1753      C1761   1.382       .  A
C1754      C1766   1.408       .  A
C1754      C1762   1.377       .  A
C1755      C1769   1.409       .  A
C1755      C1763   1.377       .  A
C1756      C1764   1.377       .  A
C1756      C1767   1.404       .  A
C1757      C1765   1.377       .  A
C1757      C1768   1.404       .  A
C1758      H1770   1.082       .  S
C1758      C2529   1.382       .  A
C1759      H1771   1.082       .  S
C1759      C2528   1.381   1_545  A
C1760      H1772   1.082       .  S
C1760      C2531   1.380       .  A
C1761      H1773   1.082       .  S
C1761      C2530   1.381   1_545  A
C1762      H1774   1.080       .  S
C1763      H1775   1.080       .  S
C1764      H1776   1.080       .  S
C1765      H1777   1.080       .  S
C1767      C1855   1.493       .  S
N1780      C2170   1.351   1_554  A
N1780      C1784   1.350       .  A
N1780      H1812   1.042       .  S
N1781      C2558   1.349   1_545  A
N1781      C1789   1.350       .  A
N1782      C2172   1.348   1_554  A
N1782      C1786   1.350       .  A
N1782      H1813   1.042       .  S
N1783      C2560   1.347   1_545  A
N1783      C1791   1.347       .  A
C1784      C1792   1.382       .  A
C1784      C1800   1.403       .  A
C1785      N2165   1.350       .  A
C1785      C1801   1.400       .  A
C1785      C1793   1.382       .  A
C1786      C1794   1.382       .  A
C1786      C1803   1.402       .  A
C1787      N2167   1.349       .  A
C1787      C1802   1.402       .  A
C1787      C1795   1.383       .  A
C1788      N2551   1.350       .  A
C1788      C1800   1.401       .  A
C1788      C1796   1.377       .  A
C1789      C1803   1.400       .  A
C1789      C1797   1.376       .  A
C1790      N2553   1.349       .  A
C1790      C1798   1.377       .  A
C1790      C1801   1.401       .  A
C1791      C1799   1.377       .  A
C1791      C1802   1.397       .  A
C1792      H1804   1.082       .  S
C1792      C2178   1.380   1_554  A
C1793      H1805   1.082       .  S
C1793      C2177   1.380       .  A
C1794      H1806   1.082       .  S
C1794      C2180   1.382   1_554  A
C1795      H1807   1.082       .  S
C1795      C2179   1.381       .  A
C1796      H1808   1.080       .  S
C1796      C2567   1.371       .  A
C1797      H1809   1.080       .  S
C1797      C2566   1.370   1_545  A
C1798      H1810   1.080       .  S
C1798      C2569   1.370       .  A
C1799      H1811   1.080       .  S
C1799      C2568   1.369   1_545  A
N1814      C1818   1.348       .  A
N1814      H1846   1.043       .  S
N1815      C1822   1.349       .  A
N1815      C2208   1.347   1_554  A
N1816      C1820   1.352       .  A
N1816      H1847   1.041       .  S
N1817      C1824   1.351       .  A
N1817      C2210   1.351   1_554  A
C1818      C1826   1.382       .  A
C1818      C1834   1.395       .  A
C1819      C1835   1.394       .  A
C1819      C1827   1.381       .  A
C1820      C1828   1.382       .  A
C1820      C1837   1.405       .  A
C1821      C1836   1.405       .  A
C1821      C1829   1.382       .  A
C1822      C1834   1.396       .  A
C1822      C1830   1.375       .  A
C1823      N2200   1.351       .  A
C1823      C1837   1.405       .  A
C1823      C1831   1.377       .  A
C1824      C1832   1.376       .  A
C1824      C1835   1.402       .  A
C1825      N2202   1.350       .  A
C1825      C1833   1.378       .  A
C1825      C1836   1.405       .  A
C1826      H1838   1.082       .  S
C1827      H1839   1.082       .  S
C1828      H1840   1.082       .  S
C1829      H1841   1.082       .  S
C1830      H1842   1.080       .  S
C1830      C2216   1.370   1_554  A
C1831      H1843   1.080       .  S
C1831      C2215   1.374       .  A
C1832      H1844   1.080       .  S
C1832      C2218   1.373   1_554  A
C1833      H1845   1.080       .  S
C1833      C2217   1.372       .  A
C1834      C1850   1.486       .  S
C1848      C1849   1.537       .  S
C1848      C1854   1.544       .  S
C1848      C1852   1.554       .  S
C1848      C1918   1.517       .  S
C1849      H1856   1.086       .  S
C1849      C1850   1.355       .  D
C1850      C1851   1.542       .  S
C1851      C1855   1.544       .  S
C1851      C1853   1.545       .  S
C1851      H1857   1.112       .  S
C1852      H1858   1.085       .  S
C1852      C1853   1.374       .  D
C1853      C1881   1.505       .  S
C1854      H1859   1.086       .  S
C1854      C1855   1.364       .  D
N1860      C2635   1.355       .  A
N1860      C1864   1.353       .  A
N1860      H1892   1.031       .  S
N1861      C1868   1.347       .  A
N1861      C2254   1.348   1_554  A
N1862      C2637   1.351       .  A
N1862      C1866   1.354       .  A
N1862      H1893   1.032       .  S
N1863      C1870   1.351       .  A
N1863      C2256   1.350   1_554  A
C1864      C1872   1.378       .  A
C1864      C1880   1.417       .  A
C1865      N2630   1.355   1_545  A
C1865      C1881   1.418       .  A
C1865      C1873   1.378       .  A
C1866      C1874   1.380       .  A
C1866      C1883   1.412       .  A
C1867      N2632   1.349   1_545  A
C1867      C1882   1.409       .  A
C1867      C1875   1.380       .  A
C1868      C1880   1.408       .  A
C1868      C1876   1.382       .  A
C1869      N2246   1.349       .  A
C1869      C1883   1.410       .  A
C1869      C1877   1.381       .  A
C1870      C1878   1.380       .  A
C1870      C1881   1.410       .  A
C1871      N2248   1.344       .  A
C1871      C1879   1.383       .  A
C1871      C1882   1.406       .  A
C1872      H1884   1.079       .  S
C1872      C2643   1.380       .  A
C1873      H1885   1.079       .  S
C1873      C2642   1.379   1_545  A
C1874      H1886   1.082       .  S
C1874      C2645   1.380       .  A
C1875      H1887   1.081       .  S
C1875      C2644   1.378   1_545  A
C1876      H1888   1.082       .  S
C1876      C2262   1.381   1_554  A
C1877      H1889   1.082       .  S
C1877      C2261   1.382       .  A
C1878      H1890   1.082       .  S
C1878      C2264   1.381   1_554  A
C1879      H1891   1.082       .  S
C1879      C2263   1.380       .  A
C1894      H1896   1.087       .  S
C1894      C1895   1.343       .  D
C1895      H1897   1.086       .  S
C1898      H1900   1.087       .  S
C1898      C1899   1.337       .  D
C1899      H1901   1.086       .  S
C1902      H1904   1.086       .  S
C1902      C1903   1.343       .  D
C1903      H1905   1.087       .  S
C1906      H1908   1.081       .  S
C1906      C1907   1.348       .  D
C1907      H1909   1.087       .  S
C1910      H1912   1.087       .  S
C1910      C1911   1.341       .  D
C1911      H1913   1.081       .  S
C1914      H1916   1.086       .  S
C1914      C1915   1.340       .  D
C1915      H1917   1.086       .  S
C1918      H1920   1.087       .  S
C1918      C1919   1.338       .  D
C1919      H1921   1.086       .  S
C1922      H1924   1.086       .  S
C1922      C1923   1.340       .  D
C1923      H1925   1.087       .  S
C1926      N1944   1.347       .  A
C1926      C1963   1.459       .  S
C1926      C2308   1.467       .  S
N1927      N1944   1.324       .  A
N1927      N1949   1.320       .  A
N1927     Co1964   2.081       .  S
C1928      N1953   1.340       .  A
C1928      C1966   1.454       .  S
C1928      H1973   1.081       .  S
H1929      C1970   1.082       .  S
C1930      N1954   1.343       .  A
C1930      C1934   1.459       .  S
C1930      H1959   1.082       .  S
Co1931     N1949   2.077       .  S
Co1931     N1939   2.079       .  S
Co1931     N1971   2.071       .  S
Co1931     N1947   2.086       .  S
Co1931    Cl1975   2.436       .  S
N1932      C1970   1.344       .  A
N1932      N1939   1.320       .  A
N1932     Co1933   2.089       .  S
Co1933     N1936   2.096       .  S
Co1933     N1953   2.083       .  S
Co1933     N1940   2.076       .  S
Co1933    Cl1975   2.471       .  S
C1934      N1972   1.354       .  A
C1934      C2291   1.486       .  S
N1935      N1942   1.322       .  A
N1935      N1965   1.326       .  A
N1935     Co1968   2.091       .  S
N1936      N1954   1.321       .  A
N1936      N1972   1.329       .  A
N1937      C1966   1.351       .  A
N1937      N1947   1.326       .  A
H1938      C1963   1.081       .  S
N1939      N1960   1.323       .  A
N1940      N1958   1.321       .  A
N1940      N1945   1.323       .  A
C1941      N1945   1.344       .  A
C1941      C1969   1.465       .  S
C1941      C2280   1.470       .  S
N1942      C1957   1.341       .  A
N1942     Co1964   2.091       .  S
C1943      N1971   1.337       .  A
C1943      C1946   1.448       .  S
C1943      H1977   1.082       .  S
C1946      N1967   1.359       .  A
C1946      C2296   1.480       .  S
N1947      N1953   1.320       .  A
N1948      C1974   1.345       .  A
N1948      N1950   1.322       .  A
N1948     Co1964   2.092       .  S
N1949      C1963   1.339       .  A
N1950      N1978   1.324       .  A
N1950     Co1968   2.095       .  S
H1951      C1974   1.082       .  S
H1952      C1969   1.081       .  S
N1954     Co1968   2.098       .  S
N1955      N1967   1.331       .  A
N1955      N1971   1.321       .  A
N1955     Co1964   2.114       .  S
C1956      N1960   1.345       .  A
C1956      C1970   1.466       .  S
C1956      C2299   1.474       .  S
C1957      C1976   1.455       .  S
C1957      H1961   1.081       .  S
N1958      C1969   1.343       .  A
N1958     Co1968   2.093       .  S
C1962      N1978   1.348       .  A
C1962      C1974   1.467       .  S
C1962      C2284   1.481       .  S
Co1964    Cl1975   2.468       .  S
N1965      C1976   1.352       .  A
C1966      C2287   1.471       .  S
Co1968    Cl1975   2.439       .  S
C1976      C2304   1.475       .  S
C1979      C1980   1.538       .  S
C1979      C1985   1.541       .  S
C1979      C1983   1.550       .  S
C1979      C2279   1.507       .  S
C1980      H1987   1.086       .  S
C1980      C1981   1.358       .  D
C1981      C2108   1.487       .  S
C1981      C1982   1.544       .  S
C1982      C1986   1.541       .  S
C1982      C1984   1.542       .  S
C1982      H1988   1.112       .  S
C1983      H1989   1.085       .  S
C1983      C1984   1.370       .  D
C1984      C2268   1.496       .  S
C1985      H1990   1.086       .  S
C1985      C1986   1.359       .  D
C1986      C2047   1.488       .  S
C1991      C1992   1.549       .  S
C1991      C1997   1.545       .  S
C1991      C1995   1.544       .  S
C1991      C2283   1.518       .  S
C1992      H1999   1.085       .  S
C1992      C1993   1.369       .  D
C1993      C2048   1.498       .  S
C1993      C1994   1.541       .  S
C1994      C1998   1.542       .  S
C1994      C1996   1.546       .  S
C1994      H2000   1.112       .  S
C1995      H2001   1.086       .  S
C1995      C1996   1.362       .  D
C1996      C2267   1.498       .  S
C1997      H2002   1.086       .  S
C1997      C1998   1.364       .  D
C1998      C2222   1.488       .  S
C2003      C2004   1.548       .  S
C2003      C2009   1.541       .  S
C2003      C2007   1.541       .  S
C2003      C2288   1.510       .  S
C2004      H2011   1.086       .  S
C2004      C2005   1.367       .  D
C2005      C2186   1.494       .  S
C2005      C2006   1.543       .  S
C2006      C2010   1.543       .  S
C2006      C2008   1.544       .  S
C2006      H2012   1.112       .  S
C2007      H2013   1.086       .  S
C2007      C2008   1.361       .  D
C2008      C2107   1.490       .  S
C2009      H2014   1.086       .  S
C2009      C2010   1.360       .  D
C2010      C2050   1.490       .  S
C2015      C2016   1.547       .  S
C2015      C2021   1.535       .  S
C2015      C2019   1.554       .  S
C2015      C2295   1.517       .  S
C2016      H2023   1.086       .  S
C2016      C2017   1.366       .  D
C2017      C2049   1.500       .  S
C2017      C2018   1.545       .  S
C2018      C2022   1.545       .  S
C2018      C2020   1.539       .  S
C2018      H2024   1.112       .  S
C2019      H2025   1.085       .  S
C2019      C2020   1.375       .  D
C2020      C2221   1.497       .  S
C2021      H2026   1.087       .  S
C2021      C2022   1.353       .  D
C2022      C2187   1.485       .  S
N2027      C2802   1.351       .  A
N2027      C2031   1.351       .  A
N2027      H2059   1.039       .  S
N2028      C2035   1.348       .  A
N2029      C2804   1.350       .  A
N2029      C2033   1.351       .  A
N2029      H2060   1.041       .  S
N2030      C2037   1.354       .  A
C2031      C2039   1.382       .  A
C2031      C2047   1.407       .  A
C2032      N2797   1.351       .  A
C2032      C2048   1.406       .  A
C2032      C2040   1.382       .  A
C2033      C2041   1.381       .  A
C2033      C2050   1.403       .  A
C2034      N2799   1.350       .  A
C2034      C2049   1.403       .  A
C2034      C2042   1.382       .  A
C2035      C2047   1.403       .  A
C2035      C2043   1.379       .  A
C2036      C2050   1.401       .  A
C2036      C2044   1.377       .  A
C2037      C2045   1.378       .  A
C2037      C2048   1.412       .  A
C2038      C2046   1.377       .  A
C2038      C2049   1.411       .  A
C2039      H2051   1.082       .  S
C2039      C2810   1.381       .  A
C2040      H2052   1.082       .  S
C2040      C2809   1.381   1_545  A
C2041      H2053   1.082       .  S
C2041      C2812   1.380       .  A
C2042      H2054   1.082       .  S
C2042      C2811   1.381   1_545  A
C2043      H2055   1.080       .  S
C2044      H2056   1.080       .  S
C2045      H2057   1.080       .  S
C2046      H2058   1.080       .  S
C2061      C2062   1.548       .  S
C2061      C2067   1.556       .  S
C2061      C2065   1.542       .  S
C2061      C2292   1.529       .  S
C2062      H2069   1.086       .  S
C2062      C2063   1.366       .  D
C2063      C2151   1.498       .  S
C2063      C2064   1.542       .  S
C2064      C2068   1.545       .  S
C2064      C2066   1.548       .  S
C2064      H2070   1.111       .  S
C2065      H2071   1.086       .  S
C2065      C2066   1.362       .  D
C2066      C2265   1.499       .  S
C2067      H2072   1.083       .  S
C2067      C2068   1.368       .  D
C2068      C2105   1.501       .  S
C2073      C2074   1.544       .  S
C2073      C2079   1.539       .  S
C2073      C2077   1.556       .  S
C2073      C2300   1.518       .  S
C2074      H2081   1.086       .  S
C2074      C2075   1.363       .  D
C2075      C2154   1.492       .  S
C2075      C2076   1.541       .  S
C2076      C2080   1.544       .  S
C2076      C2078   1.543       .  S
C2076      H2082   1.112       .  S
C2077      H2083   1.083       .  S
C2077      C2078   1.367       .  D
C2078      C2106   1.498       .  S
C2079      H2084   1.086       .  S
C2079      C2080   1.359       .  D
C2080      C2185   1.489       .  S
N2085      C2089   1.353   1_455  A
N2085      H2117   1.042       .  S
N2086      C2093   1.351       .  A
N2087      C2091   1.348       .  A
N2087      H2118   1.042       .  S
N2088      C2095   1.351       .  A
C2089      C2097   1.383       .  A
C2089      C2105   1.410       .  A
C2090      C2106   1.408       .  A
C2090      C2098   1.382       .  A
C2091      C2099   1.382       .  A
C2091      C2108   1.400       .  A
C2092      C2107   1.400       .  A
C2092      C2100   1.381       .  A
C2093      C2105   1.404       .  A
C2093      C2101   1.376       .  A
C2094      C2108   1.400       .  A
C2094      C2102   1.376       .  A
C2095      C2103   1.377       .  A
C2095      C2106   1.405       .  A
C2096      C2104   1.376       .  A
C2096      C2107   1.402       .  A
C2097      H2109   1.082       .  S
C2098      H2110   1.082       .  S
C2099      H2111   1.082       .  S
C2100      H2112   1.082       .  S
C2101      H2113   1.080       .  S
C2102      H2114   1.080       .  S
C2103      H2115   1.080       .  S
C2104      H2116   1.080       .  S
C2119      C2120   1.540       .  S
C2119      C2125   1.543       .  S
C2119      C2123   1.542       .  S
C2119      C2307   1.503       .  S
C2120      H2127   1.086       .  S
C2120      C2121   1.360       .  D
C2121      C2220   1.491       .  S
C2121      C2122   1.546       .  S
C2122      C2126   1.543       .  S
C2122      C2124   1.544       .  S
C2122      H2128   1.111       .  S
C2123      H2129   1.086       .  S
C2123      C2124   1.361       .  D
C2124      C2153   1.492       .  S
C2125      H2130   1.086       .  S
C2125      C2126   1.364       .  D
C2126      C2188   1.487       .  S
N2131      C2906   1.349       .  A
N2131      C2135   1.351       .  A
N2131      H2163   1.043       .  S
N2132      C2139   1.352       .  A
N2133      C2908   1.350       .  A
N2133      C2137   1.349       .  A
N2133      H2164   1.042       .  S
N2134      C2141   1.350       .  A
C2135      C2143   1.382       .  A
C2135      C2151   1.403       .  A
C2136      N2901   1.352       .  A
C2136      C2152   1.404       .  A
C2136      C2144   1.382       .  A
C2137      C2145   1.382       .  A
C2137      C2154   1.402       .  A
C2138      N2903   1.352       .  A
C2138      C2153   1.406       .  A
C2138      C2146   1.382       .  A
C2139      C2151   1.405       .  A
C2139      C2147   1.376       .  A
C2140      C2154   1.405       .  A
C2140      C2148   1.376       .  A
C2141      C2149   1.376       .  A
C2141      C2152   1.399       .  A
C2142      C2150   1.378       .  A
C2142      C2153   1.401       .  A
C2143      H2155   1.082       .  S
C2143      C2914   1.381       .  A
C2144      H2156   1.082       .  S
C2144      C2913   1.380   1_545  A
C2145      H2157   1.082       .  S
C2145      C2916   1.381       .  A
C2146      H2158   1.082       .  S
C2146      C2915   1.381   1_545  A
C2147      H2159   1.080       .  S
C2148      H2160   1.080       .  S
C2149      H2161   1.080       .  S
C2150      H2162   1.080       .  S
C2152      C2240   1.493       .  S
N2165      C2169   1.347       .  A
N2165      H2197   1.042       .  S
N2166      C2943   1.350   1_545  A
N2166      C2174   1.349       .  A
N2167      C2171   1.348       .  A
N2167      H2198   1.041       .  S
N2168      C2945   1.349   1_545  A
N2168      C2176   1.347       .  A
C2169      C2177   1.382       .  A
C2169      C2185   1.400       .  A
C2170      C2186   1.403       .  A
C2170      C2178   1.382       .  A
C2171      C2179   1.382       .  A
C2171      C2188   1.400       .  A
C2172      C2187   1.404       .  A
C2172      C2180   1.384       .  A
C2173      N2936   1.350       .  A
C2173      C2185   1.405       .  A
C2173      C2181   1.377       .  A
C2174      C2188   1.402       .  A
C2174      C2182   1.378       .  A
C2175      N2938   1.352       .  A
C2175      C2183   1.377       .  A
C2175      C2186   1.406       .  A
C2176      C2184   1.377       .  A
C2176      C2187   1.397       .  A
C2177      H2189   1.082       .  S
C2178      H2190   1.082       .  S
C2179      H2191   1.082       .  S
C2180      H2192   1.082       .  S
C2181      H2193   1.079       .  S
C2181      C2952   1.373       .  A
C2182      H2194   1.081       .  S
C2182      C2951   1.373   1_545  A
C2183      H2195   1.080       .  S
C2183      C2954   1.374       .  A
C2184      H2196   1.079       .  S
C2184      C2953   1.367   1_545  A
N2199      C2203   1.349       .  A
N2199      H2231   1.042       .  S
N2200      C2207   1.351       .  A
N2201      C2205   1.352       .  A
N2201      H2232   1.041       .  S
N2202      C2209   1.351       .  A
C2203      C2211   1.382       .  A
C2203      C2219   1.402       .  A
C2204      C2220   1.401       .  A
C2204      C2212   1.382       .  A
C2205      C2213   1.382       .  A
C2205      C2222   1.407       .  A
C2206      C2221   1.407       .  A
C2206      C2214   1.382       .  A
C2207      C2219   1.405       .  A
C2207      C2215   1.377       .  A
C2208      C2222   1.399       .  A
C2208      C2216   1.378       .  A
C2209      C2217   1.377       .  A
C2209      C2220   1.403       .  A
C2210      C2218   1.377       .  A
C2210      C2221   1.406       .  A
C2211      H2223   1.082       .  S
C2212      H2224   1.082       .  S
C2213      H2225   1.082       .  S
C2214      H2226   1.082       .  S
C2215      H2227   1.080       .  S
C2216      H2228   1.080       .  S
C2217      H2229   1.080       .  S
C2218      H2230   1.080       .  S
C2219      C2235   1.493       .  S
C2233      C2234   1.542       .  S
C2233      C2239   1.542       .  S
C2233      C2237   1.549       .  S
C2233      C2303   1.513       .  S
C2234      H2241   1.086       .  S
C2234      C2235   1.361       .  D
C2235      C2236   1.546       .  S
C2236      C2240   1.545       .  S
C2236      C2238   1.543       .  S
C2236      H2242   1.111       .  S
C2237      H2243   1.085       .  S
C2237      C2238   1.369       .  D
C2238      C2266   1.497       .  S
C2239      H2244   1.086       .  S
C2239      C2240   1.362       .  D
N2245      C3020   1.355       .  A
N2245      C2249   1.353       .  A
N2245      H2277   1.031       .  S
N2246      C2253   1.348       .  A
N2247      C3022   1.351       .  A
N2247      C2251   1.353       .  A
N2247      H2278   1.035       .  S
N2248      C2255   1.348       .  A
C2249      C2257   1.379       .  A
C2249      C2265   1.417       .  A
C2250      N3015   1.354       .  A
C2250      C2266   1.415       .  A
C2250      C2258   1.377       .  A
C2251      C2259   1.380       .  A
C2251      C2268   1.411       .  A
C2252      N3017   1.352   1_545  A
C2252      C2267   1.411       .  A
C2252      C2260   1.380       .  A
C2253      C2265   1.410       .  A
C2253      C2261   1.382       .  A
C2254      C2268   1.408       .  A
C2254      C2262   1.381       .  A
C2255      C2263   1.380       .  A
C2255      C2266   1.404       .  A
C2256      C2264   1.383       .  A
C2256      C2267   1.413       .  A
C2257      H2269   1.079       .  S
C2257      C3028   1.379       .  A
C2258      H2270   1.079       .  S
C2258      C3027   1.379   1_545  A
C2259      H2271   1.081       .  S
C2259      C3030   1.379       .  A
C2260      H2272   1.081       .  S
C2260      C3029   1.378   1_545  A
C2261      H2273   1.082       .  S
C2262      H2274   1.082       .  S
C2263      H2275   1.082       .  S
C2264      H2276   1.082       .  S
C2279      H2281   1.087       .  S
C2279      C2280   1.338       .  D
C2280      H2282   1.087       .  S
C2283      H2285   1.086       .  S
C2283      C2284   1.343       .  D
C2284      H2286   1.086       .  S
C2287      H2289   1.086       .  S
C2287      C2288   1.341       .  D
C2288      H2290   1.087       .  S
C2291      H2293   1.082       .  S
C2291      C2292   1.349       .  D
C2292      H2294   1.087       .  S
C2295      H2297   1.088       .  S
C2295      C2296   1.336       .  D
C2296      H2298   1.086       .  S
C2299      H2301   1.081       .  S
C2299      C2300   1.342       .  D
C2300      H2302   1.087       .  S
C2303      H2305   1.087       .  S
C2303      C2304   1.342       .  D
C2304      H2306   1.086       .  S
C2307      H2309   1.086       .  S
C2307      C2308   1.339       .  D
C2308      H2310   1.087       .  S
C2311      N2329   1.347       .  A
C2311      C2348   1.461       .  S
C2311      C2693   1.471       .  S
N2312      N2329   1.324       .  A
N2312      N2334   1.319       .  A
N2312     Co2349   2.082       .  S
C2313      N2338   1.347       .  A
C2313      C2351   1.469       .  S
C2313      H2358   1.081       .  S
H2314      C2355   1.082       .  S
C2315      N2339   1.349       .  A
C2315      C2319   1.469       .  S
C2315      H2344   1.082       .  S
Co2316     N2334   2.073       .  S
Co2316     N2324   2.068       .  S
Co2316     N2356   2.057       .  S
Co2316     N2332   2.056       .  S
Co2316    Cl2360   2.444       .  S
N2317      C2355   1.342       .  A
N2317      N2324   1.320       .  A
N2317     Co2318   2.095       .  S
Co2318     N2321   2.089       .  S
Co2318     N2338   2.105       .  S
Co2318     N2325   2.093       .  S
Co2318    Cl2360   2.456       .  S
C2319      N2357   1.348       .  A
C2319      C2676   1.484       .  S
N2320      N2327   1.322       .  A
N2320      N2350   1.332       .  A
N2320     Co2353   2.118       .  S
N2321      N2339   1.322       .  A
N2321      N2357   1.324       .  A
N2322      C2351   1.339       .  A
N2322      N2332   1.319       .  A
H2323      C2348   1.081       .  S
N2324      N2345   1.323       .  A
N2325      N2343   1.323       .  A
N2325      N2330   1.327       .  A
C2326      N2330   1.350       .  A
C2326      C2354   1.466       .  S
C2326      C2665   1.484       .  S
N2327      C2342   1.333       .  A
N2327     Co2349   2.065       .  S
C2328      N2356   1.333       .  A
C2328      C2331   1.442       .  S
C2328      H2362   1.082       .  S
C2331      N2352   1.356       .  A
C2331      C2681   1.465       .  S
N2332      N2338   1.320       .  A
N2333      C2359   1.345       .  A
N2333      N2335   1.322       .  A
N2333     Co2349   2.096       .  S
N2334      C2348   1.339       .  A
N2335      N2363   1.326       .  A
N2335     Co2353   2.100       .  S
H2336      C2359   1.081       .  S
H2337      C2354   1.081       .  S
N2339     Co2353   2.110       .  S
N2340      N2352   1.327       .  A
N2340      N2356   1.319       .  A
N2340     Co2349   2.096       .  S
C2341      N2345   1.346       .  A
C2341      C2355   1.464       .  S
C2341      C2684   1.472       .  S
C2342      C2361   1.443       .  S
C2342      H2346   1.082       .  S
N2343      C2354   1.345       .  A
N2343     Co2353   2.109       .  S
C2347      N2363   1.350       .  A
C2347      C2359   1.467       .  S
C2347      C2669   1.487       .  S
Co2349    Cl2360   2.458       .  S
N2350      C2361   1.360       .  A
C2351      C2672   1.466       .  S
Co2353    Cl2360   2.454       .  S
C2361      C2689   1.474       .  S
C2364      C2365   1.545       .  S
C2364      C2370   1.545       .  S
C2364      C2368   1.551       .  S
C2364      C2664   1.520       .  S
C2365      H2372   1.086       .  S
C2365      C2366   1.361       .  D
C2366      C2493   1.494       .  S
C2366      C2367   1.543       .  S
C2367      C2371   1.543       .  S
C2367      C2369   1.540       .  S
C2367      H2373   1.112       .  S
C2368      H2374   1.085       .  S
C2368      C2369   1.371       .  D
C2369      C2653   1.496       .  S
C2370      H2375   1.086       .  S
C2370      C2371   1.364       .  D
C2371      C2432   1.495       .  S
C2376      C2377   1.551       .  S
C2376      C2382   1.547       .  S
C2376      C2380   1.543       .  S
C2376      C2668   1.524       .  S
C2377      H2384   1.085       .  S
C2377      C2378   1.371       .  D
C2378      C2433   1.499       .  S
C2378      C2379   1.541       .  S
C2379      C2383   1.543       .  S
C2379      C2381   1.543       .  S
C2379      H2385   1.112       .  S
C2380      H2386   1.086       .  S
C2380      C2381   1.360       .  D
C2381      C2652   1.493       .  S
C2382      H2387   1.086       .  S
C2382      C2383   1.366       .  D
C2383      C2607   1.495       .  S
C2388      C2389   1.535       .  S
C2388      C2394   1.543       .  S
C2388      C2392   1.550       .  S
C2388      C2673   1.506       .  S
C2389      H2396   1.086       .  S
C2389      C2390   1.358       .  D
C2390      C2571   1.481       .  S
C2390      C2391   1.542       .  S
C2391      C2395   1.543       .  S
C2391      C2393   1.543       .  S
C2391      H2397   1.112       .  S
C2392      H2398   1.086       .  S
C2392      C2393   1.368       .  D
C2393      C2492   1.497       .  S
C2394      H2399   1.086       .  S
C2394      C2395   1.360       .  D
C2395      C2435   1.492       .  S
C2400      C2401   1.548       .  S
C2400      C2406   1.531       .  S
C2400      C2404   1.547       .  S
C2400      C2680   1.505       .  S
C2401      H2408   1.086       .  S
C2401      C2402   1.367       .  D
C2402      C2434   1.497       .  S
C2402      C2403   1.544       .  S
C2403      C2407   1.547       .  S
C2403      C2405   1.543       .  S
C2403      H2409   1.111       .  S
C2404      H2410   1.086       .  S
C2404      C2405   1.365       .  D
C2405      C2606   1.492       .  S
C2406      H2411   1.086       .  S
C2406      C2407   1.353       .  D
C2407      C2572   1.482       .  S
N2412      C2416   1.353       .  A
N2412      H2444   1.040   1_565  S
N2413      C2420   1.350       .  A
N2414      C2418   1.350   1_545  A
N2414      H2445   1.041       .  S
N2415      C2422   1.353       .  A
C2416      C2424   1.382       .  A
C2416      C2432   1.409       .  A
C2417      C2433   1.407       .  A
C2417      C2425   1.381       .  A
C2418      C2426   1.383       .  A
C2418      C2435   1.404       .  A
C2419      C2434   1.403       .  A
C2419      C2427   1.382       .  A
C2420      C2432   1.405       .  A
C2420      C2428   1.378       .  A
C2421      C2435   1.403       .  A
C2421      C2429   1.376       .  A
C2422      C2430   1.378       .  A
C2422      C2433   1.410       .  A
C2423      C2431   1.377       .  A
C2423      C2434   1.408       .  A
C2424      H2436   1.082       .  S
C2425      H2437   1.082       .  S
C2426      H2438   1.082       .  S
C2427      H2439   1.082       .  S
C2428      H2440   1.080       .  S
C2429      H2441   1.080       .  S
C2430      H2442   1.080       .  S
C2431      H2443   1.080       .  S
C2446      C2447   1.543       .  S
C2446      C2452   1.548       .  S
C2446      C2450   1.549       .  S
C2446      C2677   1.524       .  S
C2447      H2454   1.086       .  S
C2447      C2448   1.362       .  D
C2448      C2536   1.492       .  S
C2448      C2449   1.545       .  S
C2449      C2453   1.547       .  S
C2449      C2451   1.548       .  S
C2449      H2455   1.111       .  S
C2450      H2456   1.086       .  S
C2450      C2451   1.368       .  D
C2451      C2650   1.504       .  S
C2452      H2457   1.086       .  S
C2452      C2453   1.368       .  D
C2453      C2490   1.503       .  S
C2458      C2459   1.545       .  S
C2458      C2464   1.538       .  S
C2458      C2462   1.545       .  S
C2458      C2685   1.508       .  S
C2459      H2466   1.086       .  S
C2459      C2460   1.364       .  D
C2460      C2539   1.494       .  S
C2460      C2461   1.545       .  S
C2461      C2465   1.542       .  S
C2461      C2463   1.543       .  S
C2461      H2467   1.112       .  S
C2462      H2468   1.086       .  S
C2462      C2463   1.365       .  D
C2463      C2491   1.492       .  S
C2464      H2469   1.086       .  S
C2464      C2465   1.358       .  D
C2465      C2570   1.484       .  S
N2470      C2474   1.354   1_455  A
N2470      H2502   1.041       .  S
N2471      C2478   1.352   1_556  A
N2471      C2864   1.349       .  A
N2472      C2476   1.349   1_455  A
N2472      H2503   1.041       .  S
N2473      C2480   1.351   1_556  A
N2473      C2866   1.354       .  A
C2474      C2482   1.381       .  A
C2474      C2490   1.407       .  A
C2475      C2491   1.405       .  A
C2475      C2483   1.382       .  A
C2476      C2484   1.383       .  A
C2476      C2493   1.404       .  A
C2477      C2492   1.404       .  A
C2477      C2485   1.382       .  A
C2478      C2490   1.404       .  A
C2478      C2486   1.375       .  A
C2479      N2856   1.351       .  A
C2479      C2493   1.406       .  A
C2479      C2487   1.377       .  A
C2480      C2488   1.378       .  A
C2480      C2491   1.408       .  A
C2481      N2858   1.353       .  A
C2481      C2489   1.377       .  A
C2481      C2492   1.406       .  A
C2482      H2494   1.082       .  S
C2483      H2495   1.082       .  S
C2484      H2496   1.082       .  S
C2485      H2497   1.082       .  S
C2486      H2498   1.080       .  S
C2486      C2872   1.372   1_554  A
C2487      H2499   1.080       .  S
C2487      C2871   1.373       .  A
C2488      H2500   1.080       .  S
C2488      C2874   1.374   1_554  A
C2489      H2501   1.080       .  S
C2489      C2873   1.372       .  A
C2504      C2505   1.541       .  S
C2504      C2510   1.545       .  S
C2504      C2508   1.542       .  S
C2504      C2692   1.505       .  S
C2505      H2512   1.086       .  S
C2505      C2506   1.359       .  D
C2506      C2605   1.489       .  S
C2506      C2507   1.542       .  S
C2507      C2511   1.543       .  S
C2507      C2509   1.546       .  S
C2507      H2513   1.111       .  S
C2508      H2514   1.086       .  S
C2508      C2509   1.361       .  D
C2509      C2538   1.493       .  S
C2510      H2515   1.086       .  S
C2510      C2511   1.367       .  D
C2511      C2573   1.491       .  S
N2516      C2520   1.350       .  A
N2516      H2548   1.042       .  S
N2517      C2524   1.350       .  A
N2518      C2522   1.351       .  A
N2518      H2549   1.043       .  S
N2519      C2526   1.350       .  A
C2520      C2528   1.382       .  A
C2520      C2536   1.401       .  A
C2521      C2537   1.405       .  A
C2521      C2529   1.382       .  A
C2522      C2530   1.382       .  A
C2522      C2539   1.404       .  A
C2523      C2538   1.405       .  A
C2523      C2531   1.382       .  A
C2524      C2536   1.402       .  A
C2524      C2532   1.377       .  A
C2525      C2539   1.402       .  A
C2525      C2533   1.377       .  A
C2526      C2534   1.377       .  A
C2526      C2537   1.402       .  A
C2527      C2535   1.377       .  A
C2527      C2538   1.402       .  A
C2528      H2540   1.082       .  S
C2529      H2541   1.082       .  S
C2530      H2542   1.082       .  S
C2531      H2543   1.082       .  S
C2532      H2544   1.080       .  S
C2533      H2545   1.080       .  S
C2534      H2546   1.080       .  S
C2535      H2547   1.080       .  S
C2537      C2625   1.494       .  S
N2550      C2940   1.349   1_554  A
N2550      C2554   1.347       .  A
N2550      H2582   1.042       .  S
N2551      C2559   1.349       .  A
N2552      C2942   1.351   1_554  A
N2552      C2556   1.351       .  A
N2552      H2583   1.041       .  S
N2553      C2561   1.348       .  A
C2554      C2562   1.382       .  A
C2554      C2570   1.399       .  A
C2555      N2935   1.348       .  A
C2555      C2571   1.397       .  A
C2555      C2563   1.382       .  A
C2556      C2564   1.382       .  A
C2556      C2573   1.405       .  A
C2557      N2937   1.347       .  A
C2557      C2572   1.401       .  A
C2557      C2565   1.384       .  A
C2558      C2570   1.399       .  A
C2558      C2566   1.376       .  A
C2559      C2573   1.402       .  A
C2559      C2567   1.378       .  A
C2560      C2568   1.376       .  A
C2560      C2571   1.397       .  A
C2561      C2569   1.377       .  A
C2561      C2572   1.399       .  A
C2562      H2574   1.082       .  S
C2562      C2948   1.381   1_554  A
C2563      H2575   1.082       .  S
C2563      C2947   1.378       .  A
C2564      H2576   1.082       .  S
C2564      C2950   1.382   1_554  A
C2565      H2577   1.082       .  S
C2565      C2949   1.380       .  A
C2566      H2578   1.079       .  S
C2567      H2579   1.081       .  S
C2568      H2580   1.079       .  S
C2569      H2581   1.079       .  S
N2584      C2588   1.349       .  A
N2584      H2616   1.042       .  S
N2585      C2592   1.350   1_556  A
N2585      C2978   1.349       .  A
N2586      C2590   1.353       .  A
N2586      H2617   1.040       .  S
N2587      C2594   1.351   1_556  A
N2587      C2980   1.351       .  A
C2588      C2596   1.382       .  A
C2588      C2604   1.400       .  A
C2589      C2605   1.399       .  A
C2589      C2597   1.382       .  A
C2590      C2598   1.381       .  A
C2590      C2607   1.407       .  A
C2591      C2606   1.407       .  A
C2591      C2599   1.381       .  A
C2592      C2604   1.401       .  A
C2592      C2600   1.376       .  A
C2593      N2970   1.350       .  A
C2593      C2607   1.404       .  A
C2593      C2601   1.377       .  A
C2594      C2602   1.377       .  A
C2594      C2605   1.403       .  A
C2595      N2972   1.349       .  A
C2595      C2603   1.379       .  A
C2595      C2606   1.404       .  A
C2596      H2608   1.082       .  S
C2597      H2609   1.082       .  S
C2598      H2610   1.082       .  S
C2599      H2611   1.082       .  S
C2600      H2612   1.080       .  S
C2600      C2986   1.372   1_554  A
C2601      H2613   1.080       .  S
C2601      C2985   1.372       .  A
C2602      H2614   1.080       .  S
C2602      C2988   1.372   1_554  A
C2603      H2615   1.080       .  S
C2603      C2987   1.372       .  A
C2604      C2620   1.492       .  S
C2618      C2619   1.537       .  S
C2618      C2624   1.544       .  S
C2618      C2622   1.552       .  S
C2618      C2688   1.515       .  S
C2619      H2626   1.086       .  S
C2619      C2620   1.358       .  D
C2620      C2621   1.549       .  S
C2621      C2625   1.546       .  S
C2621      C2623   1.546       .  S
C2621      H2627   1.111       .  S
C2622      H2628   1.085       .  S
C2622      C2623   1.371       .  D
C2623      C2651   1.504       .  S
C2624      H2629   1.086       .  S
C2624      C2625   1.362       .  D
N2630      C2634   1.355       .  A
N2630      H2662   1.034       .  S
N2631      C2638   1.349   1_556  A
N2631      C3024   1.349       .  A
N2632      C2636   1.354       .  A
N2632      H2663   1.030       .  S
N2633      C2640   1.349       .  A
N2633      C3026   1.347   1_554  A
C2634      C2642   1.378       .  A
C2634      C2650   1.418       .  A
C2635      C2651   1.418       .  A
C2635      C2643   1.377       .  A
C2636      C2644   1.379       .  A
C2636      C2653   1.411       .  A
C2637      C2652   1.411       .  A
C2637      C2645   1.381       .  A
C2638      C2650   1.409       .  A
C2638      C2646   1.381       .  A
C2639      N3016   1.348       .  A
C2639      C2653   1.408       .  A
C2639      C2647   1.381       .  A
C2640      C2648   1.380       .  A
C2640      C2651   1.407       .  A
C2641      N3018   1.348       .  A
C2641      C2649   1.382       .  A
C2641      C2652   1.409       .  A
C2642      H2654   1.079       .  S
C2643      H2655   1.079       .  S
C2644      H2656   1.081       .  S
C2645      H2657   1.081       .  S
C2646      H2658   1.082       .  S
C2646      C3032   1.381   1_554  A
C2647      H2659   1.082       .  S
C2647      C3031   1.381       .  A
C2648      H2660   1.082       .  S
C2648      C3034   1.380   1_554  A
C2649      H2661   1.082       .  S
C2649      C3033   1.380       .  A
C2664      H2666   1.087       .  S
C2664      C2665   1.345       .  D
C2665      H2667   1.086       .  S
C2668      H2670   1.086       .  S
C2668      C2669   1.345       .  D
C2669      H2671   1.086       .  S
C2672      H2674   1.087       .  S
C2672      C2673   1.334       .  D
C2673      H2675   1.087       .  S
C2676      H2678   1.087       .  S
C2676      C2677   1.347       .  D
C2677      H2679   1.086       .  S
C2680      H2682   1.088       .  S
C2680      C2681   1.331       .  D
C2681      H2683   1.087       .  S
C2684      H2686   1.087       .  S
C2684      C2685   1.338       .  D
C2685      H2687   1.087       .  S
C2688      H2690   1.087       .  S
C2688      C2689   1.336       .  D
C2689      H2691   1.087       .  S
C2692      H2694   1.086       .  S
C2692      C2693   1.340       .  D
C2693      H2695   1.087       .  S
C2696      N2714   1.346       .  A
C2696      C2733   1.462       .  S
C2696      C3078   1.470       .  S
N2697      N2714   1.324       .  A
N2697      N2719   1.320       .  A
N2697     Co2734   2.078       .  S
C2698      N2723   1.351       .  A
C2698      C2736   1.473       .  S
C2698      H2743   1.081       .  S
H2699      C2740   1.081       .  S
C2700      N2724   1.339       .  A
C2700      C2704   1.451       .  S
C2700      H2729   1.082       .  S
Co2701     N2719   2.082       .  S
Co2701     N2709   2.081       .  S
Co2701     N2741   2.079       .  S
Co2701     N2717   2.064       .  S
Co2701    Cl2745   2.436       .  S
N2702      C2740   1.344       .  A
N2702      N2709   1.321       .  A
N2702     Co2703   2.097       .  S
Co2703     N2706   2.114       .  S
Co2703     N2723   2.121       .  S
Co2703     N2710   2.089       .  S
Co2703    Cl2745   2.469       .  S
C2704      N2742   1.358       .  A
C2704      C3061   1.482       .  S
N2705      N2712   1.320       .  A
N2705      N2735   1.328       .  A
N2705     Co2738   2.098       .  S
N2706      N2724   1.321       .  A
N2706      N2742   1.330       .  A
N2707      C2736   1.341       .  A
N2707      N2717   1.320       .  A
H2708      C2733   1.081       .  S
N2709      N2730   1.325       .  A
N2710      N2728   1.322       .  A
N2710      N2715   1.326       .  A
C2711      N2715   1.349       .  A
C2711      C2739   1.464       .  S
C2711      C3050   1.481       .  S
N2712      C2727   1.339       .  A
N2712     Co2734   2.077       .  S
C2713      N2741   1.338       .  A
C2713      C2716   1.450       .  S
C2713      H2747   1.082       .  S
C2716      N2737   1.356       .  A
C2716      C3066   1.479       .  S
N2717      N2723   1.322       .  A
N2718      C2744   1.344       .  A
N2718      N2720   1.321       .  A
N2718     Co2734   2.095       .  S
N2719      C2733   1.340       .  A
N2720      N2748   1.323       .  A
N2720     Co2738   2.082       .  S
H2721      C2744   1.081       .  S
H2722      C2739   1.081       .  S
N2724     Co2738   2.076       .  S
N2725      N2737   1.329       .  A
N2725      N2741   1.320       .  A
N2725     Co2734   2.100       .  S
C2726      N2730   1.347       .  A
C2726      C2740   1.466       .  S
C2726      C3069   1.480       .  S
C2727      C2746   1.451       .  S
C2727      H2731   1.081       .  S
N2728      C2739   1.343       .  A
N2728     Co2738   2.097       .  S
C2732      N2748   1.346       .  A
C2732      C2744   1.467       .  S
C2732      C3054   1.477       .  S
Co2734    Cl2745   2.471       .  S
N2735      C2746   1.354       .  A
C2736      C3057   1.476       .  S
Co2738    Cl2745   2.438       .  S
C2746      C3074   1.473       .  S
C2749      C2750   1.542       .  S
C2749      C2755   1.546       .  S
C2749      C2753   1.548       .  S
C2749      C3049   1.516       .  S
C2750      H2757   1.086       .  S
C2750      C2751   1.360       .  D
C2751      C2878   1.490       .  S
C2751      C2752   1.543       .  S
C2752      C2756   1.542       .  S
C2752      C2754   1.542       .  S
C2752      H2758   1.112       .  S
C2753      H2759   1.085       .  S
C2753      C2754   1.368       .  D
C2754      C3038   1.496       .  S
C2755      H2760   1.086       .  S
C2755      C2756   1.366       .  D
C2756      C2817   1.496       .  S
C2761      C2762   1.547       .  S
C2761      C2767   1.547       .  S
C2761      C2765   1.539       .  S
C2761      C3053   1.513       .  S
C2762      H2769   1.086       .  S
C2762      C2763   1.368       .  D
C2763      C2818   1.495       .  S
C2763      C2764   1.541       .  S
C2764      C2768   1.545       .  S
C2764      C2766   1.545       .  S
C2764      H2770   1.112       .  S
C2765      H2771   1.086       .  S
C2765      C2766   1.358       .  D
C2766      C3037   1.491       .  S
C2767      H2772   1.086       .  S
C2767      C2768   1.365       .  D
C2768      C2992   1.495       .  S
C2773      C2774   1.540       .  S
C2773      C2779   1.544       .  S
C2773      C2777   1.553       .  S
C2773      C3058   1.518       .  S
C2774      H2781   1.086       .  S
C2774      C2775   1.361       .  D
C2775      C2956   1.487       .  S
C2775      C2776   1.543       .  S
C2776      C2780   1.545       .  S
C2776      C2778   1.542       .  S
C2776      H2782   1.112       .  S
C2777      H2783   1.085       .  S
C2777      C2778   1.370       .  D
C2778      C2877   1.502       .  S
C2779      H2784   1.086       .  S
C2779      C2780   1.363       .  D
C2780      C2820   1.497       .  S
C2785      C2786   1.545       .  S
C2785      C2791   1.542       .  S
C2785      C2789   1.556       .  S
C2785      C3065   1.523       .  S
C2786      H2793   1.086       .  S
C2786      C2787   1.364       .  D
C2787      C2819   1.494       .  S
C2787      C2788   1.542       .  S
C2788      C2792   1.547       .  S
C2788      C2790   1.543       .  S
C2788      H2794   1.111       .  S
C2789      H2795   1.083       .  S
C2789      C2790   1.368       .  D
C2790      C2991   1.498       .  S
C2791      H2796   1.086       .  S
C2791      C2792   1.361       .  D
C2792      C2957   1.497       .  S
N2797      C2801   1.352   1_545  A
N2797      H2829   1.040       .  S
N2798      C2805   1.351   1_455  A
N2799      C2803   1.351   1_545  A
N2799      H2830   1.041       .  S
N2800      C2807   1.352       .  A
C2801      C2809   1.382       .  A
C2801      C2817   1.407       .  A
C2802      C2818   1.407       .  A
C2802      C2810   1.382       .  A
C2803      C2811   1.383       .  A
C2803      C2820   1.406       .  A
C2804      C2819   1.402       .  A
C2804      C2812   1.381       .  A
C2805      C2817   1.406       .  A
C2805      C2813   1.377       .  A
C2806      C2820   1.404       .  A
C2806      C2814   1.376       .  A
C2807      C2815   1.378       .  A
C2807      C2818   1.408       .  A
C2808      C2816   1.377       .  A
C2808      C2819   1.407       .  A
C2809      H2821   1.082       .  S
C2810      H2822   1.082       .  S
C2811      H2823   1.082       .  S
C2812      H2824   1.082       .  S
C2813      H2825   1.080       .  S
C2814      H2826   1.080       .  S
C2815      H2827   1.080       .  S
C2816      H2828   1.080       .  S
C2831      C2832   1.546       .  S
C2831      C2837   1.560       .  S
C2831      C2835   1.537       .  S
C2831      C3062   1.524       .  S
C2832      H2839   1.086       .  S
C2832      C2833   1.364       .  D
C2833      C2921   1.495       .  S
C2833      C2834   1.543       .  S
C2834      C2838   1.543       .  S
C2834      C2836   1.547       .  S
C2834      H2840   1.111       .  S
C2835      H2841   1.086       .  S
C2835      C2836   1.358       .  D
C2836      C3035   1.493       .  S
C2837      H2842   1.083       .  S
C2837      C2838   1.372       .  D
C2838      C2875   1.504       .  S
C2843      C2844   1.550       .  S
C2843      C2849   1.537       .  S
C2843      C2847   1.546       .  S
C2843      C3070   1.515       .  S
C2844      H2851   1.085       .  S
C2844      C2845   1.370       .  D
C2845      C2924   1.498       .  S
C2845      C2846   1.543       .  S
C2846      C2850   1.544       .  S
C2846      C2848   1.544       .  S
C2846      H2852   1.112       .  S
C2847      H2853   1.086       .  S
C2847      C2848   1.366       .  D
C2848      C2876   1.496       .  S
C2849      H2854   1.086       .  S
C2849      C2850   1.356       .  D
C2850      C2955   1.486       .  S
N2855      C2859   1.355   1_455  A
N2855      H2887   1.041       .  S
N2856      C2863   1.352       .  A
N2857      C2861   1.349   1_455  A
N2857      H2888   1.041       .  S
N2858      C2865   1.351       .  A
C2859      C2867   1.381       .  A
C2859      C2875   1.410       .  A
C2860      C2876   1.408       .  A
C2860      C2868   1.381       .  A
C2861      C2869   1.383       .  A
C2861      C2878   1.405       .  A
C2862      C2877   1.405       .  A
C2862      C2870   1.382       .  A
C2863      C2875   1.406       .  A
C2863      C2871   1.376       .  A
C2864      C2878   1.404       .  A
C2864      C2872   1.377       .  A
C2865      C2873   1.378       .  A
C2865      C2876   1.407       .  A
C2866      C2874   1.376       .  A
C2866      C2877   1.408       .  A
C2867      H2879   1.082       .  S
C2868      H2880   1.082       .  S
C2869      H2881   1.082       .  S
C2870      H2882   1.082       .  S
C2871      H2883   1.080       .  S
C2872      H2884   1.080       .  S
C2873      H2885   1.080       .  S
C2874      H2886   1.080       .  S
C2889      C2890   1.541       .  S
C2889      C2895   1.545       .  S
C2889      C2893   1.542       .  S
C2889      C3077   1.505       .  S
C2890      H2897   1.086       .  S
C2890      C2891   1.360       .  D
C2891      C2990   1.493       .  S
C2891      C2892   1.546       .  S
C2892      C2896   1.545       .  S
C2892      C2894   1.544       .  S
C2892      H2898   1.111       .  S
C2893      H2899   1.086       .  S
C2893      C2894   1.360       .  D
C2894      C2923   1.490       .  S
C2895      H2900   1.086       .  S
C2895      C2896   1.366       .  D
C2896      C2958   1.492       .  S
N2901      C2905   1.350   1_545  A
N2901      H2933   1.043       .  S
N2902      C2909   1.352   1_455  A
N2903      C2907   1.352   1_545  A
N2903      H2934   1.042       .  S
N2904      C2911   1.349   1_455  A
C2905      C2913   1.381       .  A
C2905      C2921   1.401       .  A
C2906      C2922   1.402       .  A
C2906      C2914   1.383       .  A
C2907      C2915   1.381       .  A
C2907      C2924   1.405       .  A
C2908      C2923   1.402       .  A
C2908      C2916   1.382       .  A
C2909      C2921   1.406       .  A
C2909      C2917   1.377       .  A
C2910      C2924   1.407       .  A
C2910      C2918   1.378       .  A
C2911      C2919   1.377       .  A
C2911      C2922   1.400       .  A
C2912      C2920   1.377       .  A
C2912      C2923   1.400       .  A
C2913      H2925   1.082       .  S
C2914      H2926   1.082       .  S
C2915      H2927   1.082       .  S
C2916      H2928   1.082       .  S
C2917      H2929   1.081       .  S
C2918      H2930   1.081       .  S
C2919      H2931   1.080       .  S
C2920      H2932   1.080       .  S
C2922      C3010   1.489       .  S
N2935      C2939   1.346       .  A
N2935      H2967   1.042       .  S
N2936      C2944   1.351       .  A
N2937      C2941   1.349       .  A
N2937      H2968   1.042       .  S
N2938      C2946   1.352       .  A
C2939      C2947   1.381       .  A
C2939      C2955   1.396       .  A
C2940      C2956   1.400       .  A
C2940      C2948   1.382       .  A
C2941      C2949   1.382       .  A
C2941      C2958   1.400       .  A
C2942      C2957   1.405       .  A
C2942      C2950   1.383       .  A
C2943      C2955   1.401       .  A
C2943      C2951   1.376       .  A
C2944      C2958   1.405       .  A
C2944      C2952   1.376       .  A
C2945      C2953   1.376       .  A
C2945      C2956   1.398       .  A
C2946      C2954   1.377       .  A
C2946      C2957   1.407       .  A
C2947      H2959   1.082       .  S
C2948      H2960   1.082       .  S
C2949      H2961   1.082       .  S
C2950      H2962   1.082       .  S
C2951      H2963   1.080       .  S
C2952      H2964   1.080       .  S
C2953      H2965   1.080       .  S
C2954      H2966   1.080       .  S
N2969      C2973   1.350       .  A
N2969      H3001   1.042       .  S
N2970      C2977   1.350       .  A
N2971      C2975   1.352       .  A
N2971      H3002   1.040       .  S
N2972      C2979   1.350       .  A
C2973      C2981   1.383       .  A
C2973      C2989   1.404       .  A
C2974      C2990   1.404       .  A
C2974      C2982   1.383       .  A
C2975      C2983   1.382       .  A
C2975      C2992   1.409       .  A
C2976      C2991   1.410       .  A
C2976      C2984   1.382       .  A
C2977      C2989   1.402       .  A
C2977      C2985   1.377       .  A
C2978      C2992   1.403       .  A
C2978      C2986   1.378       .  A
C2979      C2987   1.377       .  A
C2979      C2990   1.402       .  A
C2980      C2988   1.378       .  A
C2980      C2991   1.405       .  A
C2981      H2993   1.082       .  S
C2982      H2994   1.082       .  S
C2983      H2995   1.082       .  S
C2984      H2996   1.082       .  S
C2985      H2997   1.080       .  S
C2986      H2998   1.080       .  S
C2987      H2999   1.080       .  S
C2988      H3000   1.080       .  S
C2989      C3005   1.493       .  S
C3003      C3004   1.541       .  S
C3003      C3009   1.540       .  S
C3003      C3007   1.550       .  S
C3003      C3073   1.511       .  S
C3004      H3011   1.086       .  S
C3004      C3005   1.361       .  D
C3005      C3006   1.548       .  S
C3006      C3010   1.545       .  S
C3006      C3008   1.547       .  S
C3006      H3012   1.111       .  S
C3007      H3013   1.085       .  S
C3007      C3008   1.369       .  D
C3008      C3036   1.504       .  S
C3009      H3014   1.086       .  S
C3009      C3010   1.359       .  D
N3015      C3019   1.351   1_545  A
N3015      H3047   1.028       .  S
N3016      C3023   1.346       .  A
N3017      C3021   1.352       .  A
N3017      H3048   1.034       .  S
N3018      C3025   1.351       .  A
C3019      C3027   1.378       .  A
C3019      C3035   1.414       .  A
C3020      C3036   1.416       .  A
C3020      C3028   1.377       .  A
C3021      C3029   1.380       .  A
C3021      C3038   1.411       .  A
C3022      C3037   1.411       .  A
C3022      C3030   1.381       .  A
C3023      C3035   1.408       .  A
C3023      C3031   1.382       .  A
C3024      C3038   1.410       .  A
C3024      C3032   1.382       .  A
C3025      C3033   1.379       .  A
C3025      C3036   1.407       .  A
C3026      C3034   1.383       .  A
C3026      C3037   1.409       .  A
C3027      H3039   1.079       .  S
C3028      H3040   1.079       .  S
C3029      H3041   1.081       .  S
C3030      H3042   1.081       .  S
C3031      H3043   1.082       .  S
C3032      H3044   1.082       .  S
C3033      H3045   1.082       .  S
C3034      H3046   1.081       .  S
C3049      H3051   1.086       .  S
C3049      C3050   1.343       .  D
C3050      H3052   1.086       .  S
C3053      H3055   1.087       .  S
C3053      C3054   1.339       .  D
C3054      H3056   1.087       .  S
C3057      H3059   1.087       .  S
C3057      C3058   1.339       .  D
C3058      H3060   1.087       .  S
C3061      H3063   1.082       .  S
C3061      C3062   1.343       .  D
C3062      H3064   1.087       .  S
C3065      H3067   1.087       .  S
C3065      C3066   1.344       .  D
C3066      H3068   1.082       .  S
C3069      H3071   1.086       .  S
C3069      C3070   1.340       .  D
C3070      H3072   1.087       .  S
C3073      H3075   1.087       .  S
C3073      C3074   1.340       .  D
C3074      H3076   1.087       .  S
C3077      H3079   1.086       .  S
C3077      C3078   1.340       .  D
C3078      H3080   1.087       .  S
