geometry optimzed in LAMMPS
_audit_creation_date              2020-12-01 
_audit_creation_method            'lammps2cif' 
_symmetry_space_group_name_H-M    'P1' 
_symmetry_Int_Tables_number       1 
_symmetry_cell_setting            triclinic 
loop_ 
_symmetry_equiv_pos_as_xyz 
  x,y,z 
_cell_length_a                    28.75623632 
_cell_length_b                    28.846594939869885 
_cell_length_c                    28.937791714794656 
_cell_angle_alpha                 89.93428247510018 
_cell_angle_beta                  90.06192601267608 
_cell_angle_gamma                 89.9395785987754 
loop_ 
_atom_site_label 
_atom_site_type_symbol 
_atom_site_fract_x 
_atom_site_fract_y 
_atom_site_fract_z 
_atom_site_charge 
O1          O  0.62502012  0.72612765  0.67742386    -0.81800
C2          C  0.78985642  0.67430132  0.76722312     0.97600
O3          O  0.74993709  0.65911455  0.77715832    -0.70900
O4          O  0.69774821  0.73134828  0.79232680    -0.74500
Al5        Al  0.69009405  0.67799425  0.75522659     1.49000
C6          C  0.67984547  0.77040311  0.78444418     0.92800
O7          O  0.73627153  0.79390297  0.69001076    -0.80700
O8          O  0.72715819  0.67734671  0.61990869    -0.74300
Al9        Al  0.68190269  0.75739784  0.68471480     1.90100
O10         O  0.78338766  0.74448860  0.65656180    -0.73400
O11         O  0.74773787  0.62107829  0.68750281    -0.73200
O12         O  0.79796432  0.69171093  0.72816364    -0.78900
O13         O  0.68067606  0.62174081  0.72337316    -0.77100
O14         O  0.71058433  0.70682362  0.70501980    -1.13200
O15         O  0.62578022  0.69050019  0.74430156    -0.72400
C16         C  0.60411315  0.70439583  0.70887297     0.98300
C17         C  0.77447644  0.78494188  0.67071184     0.94700
Al18       Al  0.76010996  0.68526516  0.67544813     1.55600
O19         O  0.66478898  0.78066696  0.74467352    -0.77000
C20         C  0.71167723  0.60024062  0.70135040     0.98900
C21         C  0.70565392  0.70920872  0.59913405     0.93800
O22         O  0.69244430  0.74513458  0.62046837    -0.82300
O23         O  0.73800401  0.38075347  0.66339172    -0.81800
C24         C  0.69827080  0.21595298  0.76032759     0.97600
O25         O  0.68588030  0.25629045  0.77181397    -0.70900
O26         O  0.75735383  0.31133389  0.77854233    -0.74500
Al27       Al  0.69938814  0.31588334  0.74704232     1.49000
C28         C  0.79487948  0.33016393  0.76628368     0.92800
O29         O  0.80966439  0.27141898  0.67293320    -0.80700
O30         O  0.68721226  0.27761282  0.61176826    -0.74300
Al31       Al  0.77155074  0.32480617  0.66913320     1.90100
O32         O  0.75865006  0.22285511  0.64381877    -0.73400
O33         O  0.63689229  0.25616467  0.68441261    -0.73200
O34         O  0.71160779  0.20734149  0.71976230    -0.78900
O35         O  0.63859992  0.32190810  0.72218786    -0.77100
O36         O  0.72347697  0.29540143  0.69441316    -1.13200
O37         O  0.70760100  0.38033438  0.73292725    -0.72400
C38         C  0.71797267  0.40161190  0.69608512     0.98300
C39         C  0.79979584  0.23267929  0.65544829     0.94700
Al40       Al  0.70038818  0.24516452  0.66716879     1.55600
O41         O  0.80000420  0.34446725  0.72548342    -0.77000
C42         C  0.61598013  0.29041694  0.70199956     0.98900
C43         C  0.71708244  0.29934201  0.58835202     0.93800
O44         O  0.75464170  0.31249427  0.60666645    -0.82300
O45         O  0.28123277  0.19736179  0.68382768    -0.81800
C46         C  0.30202749  0.38969976  0.71490553     0.97600
O47         O  0.26655250  0.36921502  0.69931400    -0.70900
O48         O  0.28575902  0.32019019  0.62618712    -0.74500
Al49       Al  0.25513417  0.30639821  0.68165678     1.49000
C50         C  0.30614781  0.29075536  0.60140794     0.92800
O51         O  0.39234839  0.26634485  0.67590930    -0.80700
O52         O  0.32509518  0.25154058  0.79177826    -0.74300
Al53       Al  0.33490767  0.23485163  0.68129669     1.90100
O54         O  0.39340480  0.29777300  0.74464511    -0.73400
O55         O  0.26897697  0.32301005  0.78469221    -0.73200
O56         O  0.33513940  0.36696518  0.73223455    -0.78900
O57         O  0.21873833  0.29534370  0.73481244    -0.77100
O58         O  0.30640279  0.28291552  0.70738991    -1.13200
O59         O  0.23186318  0.24893653  0.65763244    -0.72400
C60         C  0.24262944  0.20733983  0.66596610     0.98300
C61         C  0.41448557  0.28527379  0.70840492     0.94700
Al62       Al  0.32883937  0.30771168  0.75904645     1.55600
O63         O  0.32233966  0.25387898  0.61895245    -0.77000
C64         C  0.22765338  0.31212018  0.77399923     0.98900
C65         C  0.34147189  0.21303749  0.77944875     0.93800
O66         O  0.35279517  0.20543939  0.73799858    -0.82300
O67         O  0.32872901  0.71769156  0.63508745    -0.81800
C68         C  0.23340558  0.66756681  0.79708640     0.97600
O69         O  0.22139211  0.65662298  0.75657144    -0.70900
O70         O  0.21185857  0.72612987  0.70072838    -0.74500
Al71       Al  0.24688690  0.67107127  0.69753085     1.49000
C72         C  0.22310625  0.76518028  0.68523777     0.92800
O73         O  0.31801264  0.78194735  0.74792717    -0.80700
O74         O  0.38316257  0.66286276  0.73660455    -0.74300
Al75       Al  0.32229081  0.74713990  0.69299381     1.90100
O76         O  0.34830504  0.72992621  0.79417972    -0.73400
O77         O  0.31228983  0.60940243  0.75600623    -0.73200
O78         O  0.27438153  0.67936217  0.80664032    -0.78900
O79         O  0.27441907  0.61232514  0.69072502    -0.77100
O80         O  0.29857630  0.69681733  0.71977448    -1.13200
O81         O  0.26195296  0.68104154  0.63440831    -0.72400
C82         C  0.29756698  0.69576642  0.61362695     0.98300
C83         C  0.33602878  0.77115888  0.78614740     0.94700
Al84       Al  0.32709906  0.67234886  0.76907789     1.55600
O85         O  0.26472454  0.77461976  0.67587473    -0.77000
C86         C  0.29531955  0.58936019  0.72121915     0.98900
C87         C  0.40552344  0.69459135  0.71663797     0.93800
O88         O  0.38552310  0.73144119  0.70401393    -0.82300
O89         O  0.36657642  0.72823091  0.33849260    -0.81800
C90         C  0.20219093  0.67260557  0.24623675     0.97600
O91         O  0.24334559  0.66138035  0.23593626    -0.70900
O92         O  0.29514666  0.73517752  0.22466882    -0.74500
Al93       Al  0.30236723  0.68057844  0.25964117     1.49000
C94         C  0.31018453  0.77470320  0.23539452     0.92800
O95         O  0.25171185  0.79175566  0.33338317    -0.80700
O96         O  0.26293773  0.67174491  0.39427465    -0.74300
Al97       Al  0.30720404  0.75662124  0.33459795     1.90100
O98         O  0.20425887  0.73940506  0.36066168    -0.73400
O99         O  0.24495628  0.61889027  0.32317659    -0.73200
O100        O  0.19290228  0.68942886  0.28536361    -0.78900
O101        O  0.31259210  0.62298555  0.28887124    -0.77100
O102        O  0.28009926  0.70654228  0.31096132    -1.13200
O103        O  0.36598007  0.69396047  0.27129662    -0.72400
C104        C  0.38799081  0.70879983  0.30586180     0.98300
C105        C  0.21305111  0.78111334  0.35063848     0.94700
Al106      Al  0.23048298  0.68194464  0.33860255     1.55600
O107        O  0.32093782  0.78469372  0.27647689    -0.77000
C108        C  0.28127573  0.59939439  0.30808177     0.98900
C109        C  0.28601671  0.70135431  0.41654936     0.93800
O110        O  0.29898539  0.73865350  0.39760581    -0.82300
O111        O  0.66357400  0.73640934  0.38149209    -0.81800
C112        C  0.76159835  0.70457452  0.21575471     0.97600
O113        O  0.77504643  0.69412102  0.25588946    -0.70900
O114        O  0.77856110  0.76258036  0.31337574    -0.74500
Al115      Al  0.74943747  0.70377495  0.31561547     1.49000
C116        C  0.76527968  0.79780349  0.33519096     0.92800
O117        O  0.67069817  0.81148997  0.27533431    -0.80700
O118        O  0.61222525  0.68841060  0.27732421    -0.74300
Al119      Al  0.66801981  0.77201019  0.32716225     1.90100
O120        O  0.64406263  0.76137566  0.22454387    -0.73400
O121        O  0.68604332  0.64027507  0.25621729    -0.73200
O122        O  0.71978842  0.71446454  0.20757413    -0.78900
O123        O  0.72737638  0.64215780  0.31976013    -0.77100
O124        O  0.69515904  0.72596668  0.29613341    -1.13200
O125        O  0.73496147  0.70921114  0.37989751    -0.72400
C126        C  0.69776827  0.71778003  0.40160931     0.98300
C127        C  0.65483156  0.80234856  0.23573619     0.94700
Al128      Al  0.66783420  0.70299423  0.24572858     1.55600
O129        O  0.72379548  0.80151506  0.34853870    -0.77000
C130        C  0.70566290  0.61958988  0.28939709     0.98900
C131        C  0.58781761  0.71717698  0.29920040     0.93800
O132        O  0.60549642  0.75420293  0.31415489    -0.82300
O133        O  0.20702609  0.25979938  0.32211470    -0.81800
C134        C  0.39853942  0.29906030  0.29216989     0.97600
O135        O  0.38097947  0.26172962  0.30685510    -0.70900
O136        O  0.32876058  0.27722659  0.37912021    -0.74500
Al137      Al  0.31868408  0.24495671  0.32392063     1.49000
C138        C  0.29740092  0.29541747  0.40345157     0.92800
O139        O  0.26387611  0.37649604  0.32754457    -0.80700
O140        O  0.26029540  0.30962460  0.21250501    -0.74300
Al141      Al  0.23903734  0.31663985  0.32282212     1.90100
O142        O  0.29957637  0.38102384  0.26102546    -0.73400
O143        O  0.33529375  0.26028458  0.22109151    -0.73200
O144        O  0.37299644  0.32982732  0.27469520    -0.78900
O145        O  0.31059688  0.20826054  0.27079888    -0.77100
O146        O  0.29064261  0.29337047  0.29778429    -1.13200
O147        O  0.26377734  0.21620265  0.34782517    -0.72400
C148        C  0.22113371  0.22303904  0.34065671     0.98300
C149        C  0.28385680  0.40008477  0.29697245     0.94700
Al150      Al  0.31490337  0.31816775  0.24669998     1.55600
O151        O  0.25906307  0.30784417  0.38566456    -0.77000
C152        C  0.32489259  0.21885620  0.23102600     0.98900
C153        C  0.21934026  0.31984570  0.22355640     0.93800
O154        O  0.20863121  0.32929655  0.26486817    -0.82300
O155        O  0.72600871  0.34324507  0.36875921    -0.81800
C156        C  0.67850904  0.24501054  0.20701181     0.97600
O157        O  0.66988159  0.23234584  0.24783350    -0.70900
O158        O  0.74121600  0.22583817  0.30240529    -0.74500
Al159      Al  0.68383277  0.25841060  0.30663205     1.49000
C160        C  0.77831270  0.23778115  0.32212057     0.92800
O161        O  0.79186800  0.33025392  0.25700773    -0.80700
O162        O  0.67236966  0.39595629  0.26784205    -0.74300
Al163      Al  0.75685672  0.33609897  0.31161951     1.90100
O164        O  0.73934062  0.35966063  0.20992984    -0.73400
O165        O  0.61836214  0.32455350  0.25100061    -0.73200
O166        O  0.68745207  0.28660944  0.19751247    -0.78900
O167        O  0.62342976  0.28303303  0.31398767    -0.77100
O168        O  0.70703588  0.31117222  0.28470505    -1.13200
O169        O  0.69392362  0.27404891  0.37000430    -0.72400
C170        C  0.70698556  0.31043365  0.39066358     0.98300
C171        C  0.78064017  0.34703122  0.21831033     0.94700
Al172      Al  0.68137631  0.33929811  0.23580194     1.55600
O173        O  0.78498412  0.27970075  0.33201579    -0.77000
C174        C  0.59929643  0.30540155  0.28533859     0.98900
C175        C  0.70477184  0.41915478  0.28579782     0.93800
O176        O  0.74171309  0.39923921  0.29845200    -0.82300
N177        N  0.99620003  0.08335429  0.39088619    -0.36600
N178        N  0.92363321  0.01433001  0.38288983    -0.57200
N179        N  0.99127066  0.93974153  0.38638547    -0.36600
N180        N  0.06418862  0.00805190  0.39202528    -0.57200
C181        C  0.96072753  0.10924740  0.37388679     0.27000
C182        C  0.03604544  0.10627817  0.38129908     0.27000
C183        C  0.95300239  0.91703514  0.37141050     0.27000
C184        C  0.02862949  0.91377544  0.37454236     0.27000
C185        C  0.89745289  0.05287134  0.38772320     0.35600
C186        C  0.89467641  0.97799369  0.38855893     0.35600
C187        C  0.09218216  0.04415982  0.40222213     0.35600
C188        C  0.08991930  0.96928147  0.39812524     0.35600
C189        C  0.97826338  0.14947155  0.35425910    -0.21900
C190        C  0.02570950  0.14772253  0.35914348    -0.21900
C191        C  0.96609305  0.87573493  0.35062639    -0.21900
C192        C  0.01385788  0.87385890  0.35227592    -0.21900
C193        C  0.85185514  0.04103682  0.39767090    -0.22900
C194        C  0.85003968  0.99347941  0.39799531    -0.22900
C195        C  0.13563149  0.02827427  0.41577903    -0.22900
C196        C  0.13420876  0.98075214  0.41313073    -0.22900
C197        C  0.91292484  0.09781166  0.37630567    -0.18300
C198        C  0.08153566  0.09075531  0.39176250    -0.18300
C199        C  0.07550007  0.92439783  0.38496626    -0.18300
C200        C  0.90659143  0.93189096  0.37779002    -0.18300
H201        H  0.95907925  0.17698737  0.33738109     0.14600
H202        H  0.04984984  0.17363735  0.34671319     0.14600
H203        H  0.94365309  0.84964027  0.33569660     0.14600
H204        H  0.03522687  0.84612143  0.33874434     0.14600
H205        H  0.82258418  0.06423378  0.40203751     0.12900
H206        H  0.81901829  0.97275475  0.40246531     0.12900
H207        H  0.16578992  0.04890452  0.42456895     0.12900
H208        H  0.16295011  0.95742675  0.41981428     0.12900
H209        H  0.99336468  0.05334488  0.41071020     0.26200
H210        H  0.99145964  0.96897665  0.40742174     0.26200
N211        N  0.07983776  0.98950979  0.63897591    -0.36600
N212        N  0.01642224  0.06689331  0.63012012    -0.57200
N213        N  0.93970390  0.00248953  0.63881370    -0.36600
N214        N  0.00355726  0.92469605  0.64362474    -0.57200
C215        C  0.10911425  0.02355695  0.62580356     0.27000
C216        C  0.10199776  0.94883919  0.63212602     0.27000
C217        C  0.91673439  0.04148045  0.62662363     0.27000
C218        C  0.91008991  0.96660026  0.63337888     0.27000
C219        C  0.05632742  0.09007655  0.63840113     0.35600
C220        C  0.98153120  0.09715773  0.63817168     0.35600
C221        C  0.03868252  0.89727066  0.65814184     0.35600
C222        C  0.96396006  0.90415429  0.65776369     0.35600
C223        C  0.15030421  0.00447266  0.60985226    -0.21900
C224        C  0.14568781  0.95710896  0.61351888    -0.21900
C225        C  0.87177509  0.03018855  0.61323530    -0.21900
C226        C  0.86771929  0.98279667  0.61715891    -0.21900
C227        C  0.04682814  0.13548012  0.65085371    -0.22900
C228        C  0.99941005  0.14010772  0.65025551    -0.22900
C229        C  0.02134698  0.85911996  0.68164807    -0.22900
C230        C  0.97380100  0.86325069  0.68096705    -0.22900
C231        C  0.10121724  0.07118269  0.63290744    -0.18300
C232        C  0.08589713  0.90542172  0.64801663    -0.18300
C233        C  0.91905156  0.92061151  0.64740282    -0.18300
C234        C  0.93385101  0.08695354  0.63279163    -0.18300
H235        H  0.18088371  0.02284285  0.59806584     0.14600
H236        H  0.17213195  0.93174716  0.60516780     0.14600
H237        H  0.84420457  0.05359462  0.60304951     0.14600
H238        H  0.83660571  0.96278442  0.61052059     0.14600
H239        H  0.07139761  0.16254352  0.65939213     0.12900
H240        H  0.98044705  0.17157137  0.65792781     0.12900
H241        H  0.04082435  0.83116670  0.69745962     0.12900
H242        H  0.94928848  0.83910698  0.69598443     0.12900
H243        H  0.04977020  0.99410021  0.65842711     0.26200
H244        H  0.97125493  0.00124851  0.65634159     0.26200
N245        N  0.35058793  0.99338956  0.93983482    -0.36600
N246        N  0.34676816  0.92268075  0.01090333    -0.57200
N247        N  0.33687156  0.99494162  0.07830012    -0.36600
N248        N  0.34434816  0.06549397  0.00731033    -0.57200
C249        C  0.36524622  0.95539207  0.91696696     0.27000
C250        C  0.36408871  0.03060456  0.91490021     0.27000
C251        C  0.34710364  0.95788182  0.10501640     0.27000
C252        C  0.34711716  0.03311553  0.10317221     0.27000
C253        C  0.33910854  0.89659520  0.97308821     0.35600
C254        C  0.33170749  0.89752109  0.04718828     0.35600
C255        C  0.33619453  0.09050878  0.96873267     0.35600
C256        C  0.32966502  0.09143068  0.04314435     0.35600
C257        C  0.38895863  0.96842499  0.87736424    -0.21900
C258        C  0.38834225  0.01611438  0.87610520    -0.21900
C259        C  0.36467694  0.97254169  0.14713338    -0.21900
C260        C  0.36487649  0.02022343  0.14590385    -0.21900
C261        C  0.31934923  0.85452285  0.98527929    -0.22900
C262        C  0.31452114  0.85515913  0.03244318    -0.22900
C263        C  0.31576615  0.13255782  0.98002360    -0.22900
C264        C  0.31193133  0.13328383  0.02741457    -0.22900
C265        C  0.35229322  0.90972534  0.92819299    -0.18300
C266        C  0.35066518  0.07668236  0.92425176    -0.18300
C267        C  0.33606024  0.07882116  0.08977550    -0.18300
C268        C  0.33653255  0.91164869  0.09345863    -0.18300
H269        H  0.40378465  0.94584928  0.85140082     0.14600
H270        H  0.40285985  0.03760395  0.84905736     0.14600
H271        H  0.37523676  0.95112596  0.17603824     0.14600
H272        H  0.37556009  0.04283456  0.17377689     0.14600
H273        H  0.30950199  0.82634225  0.96265202     0.12900
H274        H  0.30014718  0.82757523  0.05336912     0.12900
H275        H  0.30543460  0.16007683  0.95671559     0.12900
H276        H  0.29814840  0.16147369  0.04792233     0.12900
H277        H  0.32674373  0.99357731  0.96687278     0.26200
H278        H  0.31790207  0.99430267  0.04762827     0.26200
N279        N  0.00105917  0.34272901  0.06290406    -0.36600
N280        N  0.93323568  0.36707068  0.99339085    -0.57200
N281        N  0.00714731  0.35674749  0.88786333    -0.36600
N282        N  0.07273247  0.33728298  0.99432221    -0.57200
C283        C  0.96540837  0.35892026  0.08860185     0.27000
C284        C  0.03961291  0.34479640  0.08961915     0.27000
C285        C  0.97332254  0.38386392  0.90566915     0.27000
C286        C  0.04780190  0.37234188  0.90544648     0.27000
C287        C  0.90422812  0.35838929  0.02871819     0.35600
C288        C  0.90744206  0.36530877  0.95451617     0.35600
C289        C  0.09609389  0.31943595  0.03062074     0.35600
C290        C  0.09810389  0.32755248  0.95639742     0.35600
C291        C  0.98133234  0.37162883  0.13197629    -0.21900
C292        C  0.02832800  0.36299750  0.13254598    -0.21900
C293        C  0.99285817  0.41871648  0.93228620    -0.21900
C294        C  0.03997060  0.41129343  0.93226792    -0.21900
C295        C  0.85932115  0.35181026  0.01250384    -0.22900
C296        C  0.86139924  0.35600778  0.96514134    -0.22900
C297        C  0.13608210  0.29717791  0.01566931    -0.22900
C298        C  0.13702212  0.30175967  0.96830228    -0.22900
C299        C  0.91828399  0.35808283  0.07524775    -0.18300
C300        C  0.08394212  0.32792538  0.07702277    -0.18300
C301        C  0.08644143  0.34350940  0.91175735    -0.18300
C302        C  0.92703029  0.36909523  0.91006333    -0.18300
H303        H  0.96100460  0.38507679  0.16043363     0.14600
H304        H  0.05134712  0.36880709  0.16156863     0.14600
H305        H  0.97454622  0.44355528  0.95361078     0.14600
H306        H  0.06504526  0.42889000  0.95397006     0.14600
H307        H  0.82849066  0.34432434  0.03257172     0.12900
H308        H  0.83245598  0.35254104  0.94148729     0.12900
H309        H  0.16217508  0.28025664  0.03676393     0.12900
H310        H  0.16384601  0.28878621  0.94551006     0.12900
H311        H  0.99802813  0.32600146  0.03114511     0.26200
H312        H  0.00204543  0.32461658  0.87199856     0.26200
N313        N  0.67048619  0.01525732  0.06641248    -0.36600
N314        N  0.66393360  0.93672533  0.00326591    -0.57200
N315        N  0.68220751  0.99850811  0.92697029    -0.36600
N316        N  0.68501770  0.07708636  0.99014928    -0.57200
C317        C  0.65261125  0.98229428  0.09430325     0.27000
C318        C  0.66291469  0.05656738  0.08712008     0.27000
C319        C  0.66939710  0.95978815  0.90389140     0.27000
C320        C  0.67936942  0.03433452  0.89694183     0.27000
C321        C  0.66617955  0.91392307  0.04396467     0.35600
C322        C  0.67195069  0.90488630  0.96997614     0.35600
C323        C  0.69372838  0.10685037  0.02503618     0.35600
C324        C  0.70008372  0.09784614  0.95123534     0.35600
C325        C  0.63343724  0.00273147  0.13323774    -0.21900
C326        C  0.63986233  0.04973698  0.12865496    -0.21900
C327        C  0.65918461  0.97117020  0.85837147    -0.21900
C328        C  0.66489884  0.01824199  0.85417735    -0.21900
C329        C  0.67519591  0.86729453  0.03652203    -0.22900
C330        C  0.67837716  0.86148240  0.98958598    -0.22900
C331        C  0.71467531  0.14670325  0.00834285    -0.22900
C332        C  0.71864930  0.14101880  0.96140643    -0.22900
C333        C  0.65715808  0.93414287  0.08744915    -0.18300
C334        C  0.67928330  0.09977911  0.07097295    -0.18300
C335        C  0.69222316  0.08063175  0.90633632    -0.18300
C336        C  0.67043304  0.91422497  0.92208625    -0.18300
H337        H  0.61727046  0.98545757  0.16229332     0.14600
H338        H  0.62944831  0.07582516  0.15343997     0.14600
H339        H  0.64928198  0.94818651  0.83059517     0.14600
H340        H  0.65992504  0.03813765  0.82282739     0.14600
H341        H  0.67855027  0.84012353  0.06213169     0.12900
H342        H  0.68438827  0.82891691  0.97207586     0.12900
H343        H  0.72500288  0.17704691  0.02776218     0.12900
H344        H  0.73249668  0.16621420  0.93734276     0.12900
H345        H  0.69205313  0.00923570  0.03823630     0.26200
H346        H  0.69729277  0.99961897  0.95958011     0.26200
N347        N  0.98800451  0.67864163  0.07485771    -0.36600
N348        N  0.92691009  0.68582082  0.99699665    -0.57200
N349        N  0.00589056  0.67592086  0.93667137    -0.36600
N350        N  0.06714178  0.66599965  0.01496873    -0.57200
C351        C  0.94591822  0.67235670  0.09445360     0.27000
C352        C  0.01988943  0.66043495  0.10400374     0.27000
C353        C  0.97060947  0.66635893  0.90741596     0.27000
C354        C  0.04512534  0.65966293  0.91701727     0.27000
C355        C  0.89748015  0.70055839  0.03007022     0.35600
C356        C  0.90674754  0.69588153  0.95621357     0.35600
C357        C  0.08876770  0.67393578  0.05549906     0.35600
C358        C  0.09856032  0.67496062  0.98162019     0.35600
C359        C  0.95098720  0.64912468  0.13616570    -0.21900
C360        C  0.99787411  0.64156980  0.14219773    -0.21900
C361        C  0.98754591  0.64352246  0.86877153    -0.21900
C362        C  0.03483217  0.63940267  0.87480850    -0.21900
C363        C  0.85847651  0.72074996  0.01022070    -0.22900
C364        C  0.86417324  0.71731701  0.96315328    -0.22900
C365        C  0.13424267  0.68800342  0.04796348    -0.22900
C366        C  0.14040966  0.68881965  0.00088752    -0.22900
C367        C  0.90388645  0.69106969  0.07740117    -0.18300
C368        C  0.06832876  0.66540220  0.09887276    -0.18300
C369        C  0.09020747  0.66717811  0.93440275    -0.18300
C370        C  0.92434745  0.68112667  0.91340189    -0.18300
H371        H  0.92381211  0.63960700  0.16021244     0.14600
H372        H  0.01404928  0.62532171  0.17187413     0.14600
H373        H  0.96803553  0.63196954  0.83893136     0.14600
H374        H  0.05901819  0.62403285  0.85060782     0.14600
H375        H  0.82847501  0.73506381  0.02767775     0.12900
H376        H  0.83953174  0.72843067  0.93707434     0.12900
H377        H  0.16024649  0.69661378  0.07360785     0.12900
H378        H  0.17212016  0.69798209  0.98297904     0.12900
H379        H  0.99504938  0.70002863  0.04668502     0.26200
H380        H  0.00435884  0.69765143  0.96534319     0.26200
C381        C  0.68015134  0.20979368  0.17058167    -0.05500
C382        C  0.65092944  0.21294582  0.13192252    -0.32900
C383        C  0.65067444  0.17754816  0.09879620     0.36400
C384        C  0.68065659  0.13917653  0.10383401    -0.05800
C385        C  0.71095801  0.13705689  0.14171384    -0.32800
C386        C  0.71086150  0.17206969  0.17491343     0.36300
H387        H  0.62737349  0.24205972  0.12822816     0.16600
O388        O  0.62057523  0.18028539  0.06209730    -0.60300
H389        H  0.73433008  0.10782923  0.14573784     0.16600
O390        O  0.74093459  0.16915039  0.21158518    -0.60400
H391        H  0.76729595  0.18978747  0.20350731     0.43600
H392        H  0.59328673  0.16139783  0.07120243     0.43600
C393        C  0.88273696  0.35553910  0.11186600    -0.05500
C394        C  0.85113882  0.39205424  0.11782680    -0.32900
C395        C  0.81745043  0.38981088  0.15251991     0.36400
C396        C  0.81596732  0.35111053  0.18216233    -0.05800
C397        C  0.84791493  0.31488215  0.17639847    -0.32800
C398        C  0.88100557  0.31675895  0.14129181     0.36300
H399        H  0.85270278  0.42223248  0.09555079     0.16600
O400        O  0.78737812  0.42627241  0.15837736    -0.60300
H401        H  0.84653735  0.28457664  0.19853975     0.16600
O402        O  0.91056926  0.27994675  0.13485419    -0.60400
H403        H  0.93464457  0.28302015  0.15920021     0.43600
H404        H  0.76202321  0.42098038  0.13575549     0.43600
C405        C  0.81344106  0.20253372  0.33544670    -0.05500
C406        C  0.81441413  0.15942632  0.31299313    -0.32900
C407        C  0.84687720  0.12547871  0.32553358     0.36400
C408        C  0.87782524  0.13341331  0.36254189    -0.05800
C409        C  0.87646636  0.17618655  0.38545552    -0.32800
C410        C  0.84538187  0.21089468  0.37164582     0.36300
H411        H  0.79039309  0.15214226  0.28517153     0.16600
O412        O  0.84813695  0.08462526  0.30134320    -0.60300
H413        H  0.90008338  0.18286578  0.41387915     0.16600
O414        O  0.84552393  0.25226255  0.39496220    -0.60400
H415        H  0.86940902  0.27140038  0.37925966     0.43600
H416        H  0.87067680  0.08995721  0.27598459     0.43600
C417        C  0.44955109  0.30535996  0.29354797    -0.05500
C418        C  0.47593738  0.28039814  0.32588358    -0.32900
C419        C  0.52455176  0.28181189  0.32514952     0.36400
C420        C  0.54794016  0.30777427  0.29085752    -0.05800
C421        C  0.52136561  0.33427099  0.25966378    -0.32800
C422        C  0.47270470  0.33331199  0.26084244     0.36300
H423        H  0.45880277  0.25907164  0.35158402     0.16600
O424        O  0.54864526  0.25611186  0.35708259    -0.60300
H425        H  0.53826960  0.35492522  0.23329820     0.16600
O426        O  0.44829577  0.35843141  0.22863402    -0.60400
H427        H  0.44351547  0.33696379  0.20228489     0.43600
H428        H  0.54990096  0.27583282  0.38511389     0.43600
C429        C  0.12004910  0.32360934  0.11352399    -0.05500
C430        C  0.11310368  0.29363780  0.15123749    -0.32900
C431        C  0.14479310  0.29272510  0.18803025     0.36400
C432        C  0.18415417  0.32158277  0.18694068    -0.05800
C433        C  0.19164235  0.35064442  0.14887577    -0.32800
C434        C  0.15951268  0.35243834  0.11272915     0.36300
H435        H  0.08265135  0.27157488  0.15238541     0.16600
O436        O  0.13725942  0.26337046  0.22459842    -0.60300
H437        H  0.22208225  0.37273886  0.14769755     0.16600
O438        O  0.16646421  0.38314464  0.07717604    -0.60400
H439        H  0.14803020  0.41097513  0.08547042     0.43600
H440        H  0.15574008  0.23519345  0.21764745     0.43600
C441        C  0.32904472  0.18266897  0.19553406    -0.05500
C442        C  0.29918037  0.14426101  0.19704566    -0.32900
C443        C  0.30067820  0.11054588  0.16248004     0.36400
C444        C  0.33273850  0.11483162  0.12601336    -0.05800
C445        C  0.36316088  0.15273133  0.12490210    -0.32800
C446        C  0.36133434  0.18669498  0.15917842     0.36300
H447        H  0.27392554  0.14082869  0.22453892     0.16600
O448        O  0.26982365  0.07427147  0.16368573    -0.60300
H449        H  0.38857673  0.15578855  0.09744968     0.16600
O450        O  0.39242780  0.22270012  0.15778661    -0.60400
H451        H  0.37837799  0.24586030  0.13660923     0.43600
H452        H  0.28034900  0.05413839  0.18946703     0.43600
C453        C  0.18743217  0.18819733  0.35531286    -0.05500
C454        C  0.15974417  0.19647162  0.39431569    -0.32900
C455        C  0.12674225  0.16374759  0.40836020     0.36400
C456        C  0.12065270  0.12288917  0.38249682    -0.05800
C457        C  0.14915513  0.11444605  0.34406684    -0.32800
C458        C  0.18253830  0.14677286  0.33053623     0.36300
H459        H  0.16374006  0.22832648  0.41374632     0.16600
O460        O  0.09967537  0.17250538  0.44636635    -0.60300
H461        H  0.14445469  0.08328377  0.32372117     0.16600
O462        O  0.20947583  0.13814689  0.29244369    -0.60400
H463        H  0.19208399  0.15173783  0.26608255     0.43600
H464        H  0.11569375  0.15677656  0.47239111     0.43600
C465        C  0.70342717  0.56831803  0.29179464    -0.05500
C466        C  0.67050256  0.54461811  0.26476582    -0.32900
C467        C  0.66897987  0.49616127  0.26404906     0.36400
C468        C  0.70126024  0.47023009  0.29016522    -0.05800
C469        C  0.73333735  0.49392777  0.31821561    -0.32800
C470        C  0.73462763  0.54238979  0.31922145     0.36300
H471        H  0.64600673  0.56370599  0.24354311     0.16600
O472        O  0.63731588  0.47472869  0.23579400    -0.60300
H473        H  0.75835632  0.47483095  0.33882417     0.16600
O474        O  0.76734747  0.56382973  0.34628796    -0.60400
H475        H  0.79502947  0.56744665  0.32616333     0.43600
H476        H  0.60914471  0.47058814  0.25509311     0.43600
C477        C  0.86520365  0.69861140  0.11043376    -0.05500
C478        C  0.82272617  0.67544840  0.10432151    -0.32900
C479        C  0.78781497  0.67861122  0.13775724     0.36400
C480        C  0.79558406  0.70453933  0.17813687    -0.05800
C481        C  0.83758676  0.72838318  0.18391354    -0.32800
C482        C  0.87199487  0.72622131  0.15002860     0.36300
H483        H  0.81724878  0.65373198  0.07428529     0.16600
O484        O  0.74716105  0.65452259  0.13171346    -0.60300
H485        H  0.84376265  0.74849751  0.21493784     0.16600
O486        O  0.91291226  0.74972770  0.15669789    -0.60400
H487        H  0.91002626  0.77830668  0.13783828     0.43600
H488        H  0.75152570  0.62507116  0.14891595     0.43600
C489        C  0.65350110  0.90345196  0.12822661    -0.05500
C490        C  0.61700012  0.87143861  0.13131260    -0.32900
C491        C  0.61605869  0.83891095  0.16712277     0.36400
C492        C  0.65116745  0.83932329  0.20110218    -0.05800
C493        C  0.68632412  0.87291474  0.19916607    -0.32800
C494        C  0.68794193  0.90455003  0.16272515     0.36300
H495        H  0.59019377  0.87069940  0.10497759     0.16600
O496        O  0.58076203  0.80698605  0.16871266    -0.60300
H497        H  0.71405373  0.87302899  0.22457676     0.16600
O498        O  0.72492385  0.93436866  0.15933503    -0.60400
H499        H  0.71692939  0.96095156  0.17949820     0.43600
H500        H  0.58996587  0.78230079  0.14670818     0.43600
C501        C  0.79895853  0.83408024  0.34661040    -0.05500
C502        C  0.81992942  0.85946864  0.31103449    -0.32900
C503        C  0.85396222  0.89249370  0.32118339     0.36400
C504        C  0.86851013  0.89906032  0.36716605    -0.05800
C505        C  0.84695449  0.87424834  0.40286996    -0.32800
C506        C  0.81194923  0.84209647  0.39281508     0.36300
H507        H  0.80981203  0.85366493  0.27541850     0.16600
O508        O  0.87380222  0.91734197  0.28591682    -0.60300
H509        H  0.85759431  0.87960325  0.43839498     0.16600
O510        O  0.79130910  0.81797949  0.42815495    -0.60400
H511        H  0.80968318  0.78903312  0.43128443     0.43600
H512        H  0.85734501  0.94758147  0.28584094     0.43600
C513        C  0.28564210  0.54831840  0.31003904    -0.05500
C514        C  0.31937090  0.52590547  0.28283007    -0.32900
C515        C  0.32028038  0.47755473  0.27922252     0.36400
C516        C  0.28700738  0.45077414  0.30292535    -0.05800
C517        C  0.25510301  0.47301479  0.33215116    -0.32800
C518        C  0.25426365  0.52119735  0.33593586     0.36300
H519        H  0.34426122  0.54589056  0.26303323     0.16600
O520        O  0.35331455  0.45702048  0.25185190    -0.60300
H521        H  0.22957247  0.45307342  0.35118395     0.16600
O522        O  0.22152732  0.54127400  0.36397127    -0.60400
H523        H  0.23773950  0.54703244  0.39367712     0.43600
H524        H  0.37963048  0.44994214  0.27290422     0.43600
C525        C  0.43943766  0.70542910  0.30681191    -0.05500
C526        C  0.46432100  0.72587169  0.34330997    -0.32900
C527        C  0.51289390  0.72826671  0.34225367     0.36400
C528        C  0.53750929  0.70937348  0.30467816    -0.05800
C529        C  0.51302517  0.68645400  0.26963671    -0.32800
C530        C  0.46446673  0.68479177  0.27012048     0.36300
H531        H  0.44612313  0.74143379  0.37216292     0.16600
O532        O  0.53603447  0.74882125  0.37829681    -0.60300
H533        H  0.53143927  0.67176918  0.24044389     0.16600
O534        O  0.44201407  0.66366583  0.23398752    -0.60400
H535        H  0.44001203  0.68761156  0.20941673     0.43600
H536        H  0.53379956  0.78262968  0.37241753     0.43600
C537        C  0.09870396  0.66297844  0.14023047    -0.05500
C538        C  0.13549340  0.63107412  0.14135849    -0.32900
C539        C  0.16894640  0.63305807  0.17632116     0.36400
C540        C  0.16505834  0.66651922  0.21164264    -0.05800
C541        C  0.12650999  0.69637604  0.21210329    -0.32800
C542        C  0.09360688  0.69501184  0.17652778     0.36300
H543        H  0.13934017  0.60586301  0.11387940     0.16600
O544        O  0.20525614  0.60215900  0.17562750    -0.60300
H545        H  0.12306538  0.72241873  0.23884120     0.16600
O546        O  0.05855263  0.72731108  0.17564821    -0.60400
H547        H  0.03584308  0.71682419  0.19917297     0.43600
H548        H  0.22779868  0.61508533  0.15312392     0.43600
C549        C  0.33042934  0.87701903  0.13091186    -0.05500
C550        C  0.35655325  0.83585619  0.13039240    -0.32900
C551        C  0.34931994  0.80174443  0.16387356     0.36400
C552        C  0.31690978  0.80937742  0.19929935    -0.05800
C553        C  0.29164379  0.85080018  0.20071240    -0.32800
C554        C  0.29742544  0.88415246  0.16620106     0.36300
H555        H  0.38208354  0.82993544  0.10352027     0.16600
O556        O  0.37407740  0.76111537  0.16184978    -0.60300
H557        H  0.26656602  0.85669357  0.22792121     0.16600
O558        O  0.27028297  0.92328244  0.16686605    -0.60400
H559        H  0.24362077  0.91625890  0.14628178     0.43600
H560        H  0.40374416  0.76763696  0.17805230     0.43600
C561        C  0.17808236  0.81793340  0.35959955    -0.05500
C562        C  0.14532359  0.81249414  0.39524882    -0.32900
C563        C  0.11240213  0.84724545  0.40447423     0.36400
C564        C  0.11151964  0.88793854  0.37759876    -0.05800
C565        C  0.14405297  0.89336634  0.34196019    -0.32800
C566        C  0.17730668  0.85905150  0.33309388     0.36300
H567        H  0.14560652  0.78150541  0.41643408     0.16600
O568        O  0.08188565  0.84175121  0.44046749    -0.60300
H569        H  0.14334984  0.92426200  0.32062520     0.16600
O570        O  0.20763600  0.86528146  0.29711402    -0.60400
H571        H  0.23339226  0.88412953  0.30997407     0.43600
H572        H  0.05743709  0.82061282  0.42872975     0.43600
C573        C  0.29556967  0.69361596  0.46604727    -0.05500
C574        C  0.26778124  0.66240453  0.49093287    -0.32900
C575        C  0.27040000  0.66022555  0.53901854     0.36400
C576        C  0.30097684  0.68991453  0.56308502    -0.05800
C577        C  0.33198460  0.71770605  0.53787546    -0.32800
C578        C  0.32965690  0.71950944  0.48971253     0.36300
H579        H  0.24217701  0.64124674  0.47335504     0.16600
O580        O  0.24116671  0.63061186  0.56206772    -0.60300
H581        H  0.35659992  0.73993056  0.55552931     0.16600
O582        O  0.35962786  0.74815004  0.46640110    -0.60400
H583        H  0.38466928  0.72754228  0.45483281     0.43600
H584        H  0.26079171  0.60370414  0.57085523     0.43600
C585        C  0.12917238  0.66819975  0.90118450    -0.05500
C586        C  0.12772366  0.70055412  0.86499896    -0.32900
C587        C  0.16170621  0.70027695  0.83078616     0.36400
C588        C  0.19830811  0.66817834  0.83324463    -0.05800
C589        C  0.20074553  0.63657043  0.86990945    -0.32800
C590        C  0.16600867  0.63609480  0.90373663     0.36300
H591        H  0.09957403  0.72548869  0.86289069     0.16600
O592        O  0.15950927  0.73211155  0.79557577    -0.60300
H593        H  0.22882284  0.61153207  0.87155131     0.16600
O594        O  0.16685685  0.60281886  0.93765225    -0.60400
H595        H  0.19249435  0.61188946  0.95871644     0.43600
H596        H  0.14001160  0.71741963  0.77140945     0.43600
C597        C  0.18729488  0.80017520  0.67700377    -0.05500
C598        C  0.15036063  0.79032798  0.64700542    -0.32900
C599        C  0.11724874  0.82440409  0.63662756     0.36400
C600        C  0.12051603  0.86843953  0.65742450    -0.05800
C601        C  0.15721605  0.87774381  0.68801490    -0.32800
C602        C  0.19077988  0.84413726  0.69737487     0.36300
H603        H  0.14800186  0.75665388  0.63059925     0.16600
O604        O  0.08302735  0.81522019  0.60482383    -0.60300
H605        H  0.15991685  0.91135203  0.70450429     0.16600
O606        O  0.22664574  0.85437104  0.72682977    -0.60400
H607        H  0.21420784  0.84805634  0.75814948     0.43600
H608        H  0.06261541  0.79176239  0.61949577     0.43600
C609        C  0.34231661  0.80695695  0.82190829    -0.05500
C610        C  0.31472782  0.84706943  0.82017498    -0.32900
C611        C  0.31795750  0.88072111  0.85451797     0.36400
C612        C  0.34994168  0.87507850  0.89079184    -0.05800
C613        C  0.37829685  0.83559882  0.89235998    -0.32800
C614        C  0.37424563  0.80125368  0.85857720     0.36300
H615        H  0.28970444  0.85191056  0.79273701     0.16600
O616        O  0.28818534  0.91793780  0.85369763    -0.60300
H617        H  0.40300980  0.83111614  0.92031325     0.16600
O618        O  0.40222827  0.76280906  0.86130478    -0.60400
H619        H  0.38634380  0.74169622  0.88326670     0.43600
H620        H  0.30175450  0.93991758  0.83108932     0.43600
C621        C  0.30841009  0.29769852  0.55099307    -0.05500
C622        C  0.33826431  0.26967758  0.52488050    -0.32900
C623        C  0.33660036  0.27027387  0.47677840     0.36400
C624        C  0.30440316  0.29919168  0.45375069    -0.05800
C625        C  0.27584931  0.32870949  0.47975808    -0.32800
C626        C  0.27781449  0.32839287  0.52799151     0.36300
H627        H  0.36196578  0.24583739  0.54178687     0.16600
O628        O  0.36411951  0.23969876  0.45292272    -0.60300
H629        H  0.25087699  0.35113560  0.46272842     0.16600
O630        O  0.24730698  0.35580366  0.55208414    -0.60400
H631        H  0.26376269  0.38566070  0.55654227     0.43600
H632        H  0.39375973  0.25639608  0.44760335     0.43600
C633        C  0.30332924  0.44074728  0.71456740    -0.05500
C634        C  0.27550974  0.46512221  0.68294185    -0.32900
C635        C  0.27292346  0.51343996  0.68418291     0.36400
C636        C  0.29899388  0.53841309  0.71718479    -0.05800
C637        C  0.32728850  0.51392633  0.74843450    -0.32800
C638        C  0.32927197  0.46558184  0.74761872     0.36300
H639        H  0.25497996  0.44660153  0.65754510     0.16600
O640        O  0.24404423  0.53561718  0.65352598    -0.60300
H641        H  0.34728936  0.53220079  0.77440270     0.16600
O642        O  0.35534858  0.44304232  0.78042069    -0.60400
H643        H  0.33348975  0.43656429  0.80616394     0.43600
H644        H  0.21334454  0.53691400  0.66908512     0.43600
C645        C  0.14173754  0.10236429  0.63796594    -0.05500
C646        C  0.14909440  0.13796497  0.60577669    -0.32900
C647        C  0.18285877  0.17181451  0.61391444     0.36400
C648        C  0.20969164  0.17015057  0.65465476    -0.05800
C649        C  0.20402599  0.13308868  0.68548889    -0.32800
C650        C  0.17001762  0.09950443  0.67757751     0.36300
H651        H  0.12754884  0.14025104  0.57511036     0.16600
O652        O  0.18896335  0.20664243  0.58218134    -0.60300
H653        H  0.22450345  0.13134675  0.71683762     0.16600
O654        O  0.16340407  0.06501566  0.70958264    -0.60400
H655        H  0.13999092  0.07747126  0.73143893     0.43600
H656        H  0.21604454  0.19690756  0.56331713     0.43600
C657        C  0.34724446  0.17654993  0.81413072    -0.05500
C658        C  0.37390115  0.18533227  0.85367882    -0.32900
C659        C  0.37670023  0.15241819  0.88914033     0.36400
C660        C  0.35109180  0.11094975  0.88586950    -0.05800
C661        C  0.32538024  0.10184008  0.84556620    -0.32800
C662        C  0.32419029  0.13394299  0.80939559     0.36300
H663        H  0.39263336  0.21774546  0.85698004     0.16600
O664        O  0.40529946  0.16033658  0.92631303    -0.60300
H665        H  0.30585554  0.06988507  0.84238711     0.16600
O666        O  0.29833308  0.12452698  0.77070711    -0.60400
H667        H  0.31949885  0.10709367  0.74999387     0.43600
H668        H  0.39141984  0.18696706  0.94304125     0.43600
C669        C  0.18961048  0.32118907  0.80725325    -0.05500
C670        C  0.19795452  0.35168574  0.84411618    -0.32900
C671        C  0.16359752  0.36072622  0.87687106     0.36400
C672        C  0.12021147  0.33852198  0.87374426    -0.05800
C673        C  0.11064991  0.30983093  0.83590122    -0.32800
C674        C  0.14491287  0.30127032  0.80250068     0.36300
H675        H  0.23127318  0.36883320  0.84765174     0.16600
O676        O  0.17239923  0.39170012  0.91180337    -0.60300
H677        H  0.07703943  0.29317800  0.83286924     0.16600
O678        O  0.13434641  0.27321034  0.76573417    -0.60400
H679        H  0.14346383  0.24154682  0.77557660     0.43600
H680        H  0.19462304  0.37587269  0.93277845     0.43600
C681        C  0.70339350  0.31269368  0.44147475    -0.05500
C682        C  0.73244990  0.34309396  0.46592703    -0.32900
C683        C  0.73576832  0.34058005  0.51399619     0.36400
C684        C  0.70960433  0.30729697  0.53853301    -0.05800
C685        C  0.67829877  0.27902921  0.51436101    -0.32800
C686        C  0.67511312  0.28142821  0.46628294     0.36300
H687        H  0.75442284  0.36748626  0.44766896     0.16600
O688        O  0.76600540  0.36972135  0.53634255    -0.60300
H689        H  0.65762357  0.25347187  0.53252892     0.16600
O690        O  0.64555725  0.25167889  0.44389629    -0.60400
H691        H  0.61631917  0.26943578  0.43973800     0.43600
H692        H  0.74710103  0.39709014  0.54511933     0.43600
C693        C  0.56441528  0.29242470  0.70079804    -0.05500
C694        C  0.54041572  0.31675308  0.73539467    -0.32900
C695        C  0.49174296  0.31589976  0.73768950     0.36400
C696        C  0.46584592  0.29059401  0.70476547    -0.05800
C697        C  0.48992023  0.26774536  0.66910480    -0.32800
C698        C  0.53857126  0.26837999  0.66701650     0.36300
H699        H  0.55950372  0.33538402  0.76178669     0.16600
O700        O  0.47011700  0.33889666  0.77312997    -0.60300
H701        H  0.47107571  0.24815245  0.64324563     0.16600
O702        O  0.56040199  0.24466028  0.63215284    -0.60400
H703        H  0.56727251  0.26829489  0.60820561     0.43600
H704        H  0.46388328  0.37047033  0.76100584     0.43600
C705        C  0.69333172  0.11406117  0.86756044    -0.05500
C706        C  0.72845598  0.11151721  0.83404748    -0.32900
C707        C  0.72980073  0.14359398  0.79769638     0.36400
C708        C  0.69611582  0.17903627  0.79529634    -0.05800
C709        C  0.66070353  0.18088317  0.82854166    -0.32800
C710        C  0.65898906  0.14856301  0.86430132     0.36300
H711        H  0.75499336  0.08492466  0.83642825     0.16600
O712        O  0.76546469  0.14156779  0.76633127    -0.60300
H713        H  0.63419891  0.20757173  0.82680395     0.16600
O714        O  0.62320065  0.15033277  0.89559386    -0.60400
H715        H  0.63167317  0.17531860  0.91750708     0.43600
H716        H  0.75489455  0.11947211  0.74231744     0.43600
C717        C  0.83616123  0.19785259  0.64906337    -0.05500
C718        C  0.84436606  0.17948086  0.60497263    -0.32900
C719        C  0.87701412  0.14405162  0.59889422     0.36400
C720        C  0.90004944  0.12532746  0.63755521    -0.05800
C721        C  0.89162613  0.14370714  0.68162441    -0.32800
C722        C  0.86060474  0.18047005  0.68739807     0.36300
H723        H  0.82558290  0.19282588  0.57531086     0.16600
O724        O  0.88540676  0.12720714  0.55538362    -0.60300
H725        H  0.90944397  0.12957171  0.71151230     0.16600
O726        O  0.85255647  0.19756565  0.73088753    -0.60400
H727        H  0.87537365  0.22298620  0.73490866     0.43600
H728        H  0.91377875  0.14351866  0.54473665     0.43600
C729        C  0.83273446  0.33707172  0.79997297    -0.05500
C730        C  0.85862328  0.37829452  0.79877259    -0.32900
C731        C  0.89155307  0.38790806  0.83308095     0.36400
C732        C  0.89969522  0.35561304  0.86869281    -0.05800
C733        C  0.87669659  0.31265128  0.86750775    -0.32800
C734        C  0.84291202  0.30351915  0.83385584     0.36300
H735        H  0.85163452  0.40418513  0.77249415     0.16600
O736        O  0.91378045  0.42996176  0.83286970    -0.60300
H737        H  0.88339029  0.28702337  0.89410756     0.16600
O738        O  0.82048529  0.26155573  0.83396896    -0.60400
H739        H  0.79547916  0.26461600  0.85732779     0.43600
H740        H  0.89362864  0.45086563  0.85128608     0.43600
C741        C  0.69873013  0.70591547  0.54887135    -0.05500
C742        C  0.72975859  0.67927423  0.52251363    -0.32900
C743        C  0.72867377  0.68107163  0.47431278     0.36400
C744        C  0.69558135  0.70925649  0.45175934    -0.05800
C745        C  0.66241862  0.73316129  0.47819082    -0.32800
C746        C  0.66387046  0.73173593  0.52635088     0.36300
H747        H  0.75649109  0.65870803  0.53922937     0.16600
O748        O  0.76040523  0.65553368  0.44971211    -0.60300
H749        H  0.63642346  0.75475849  0.46163037     0.16600
O750        O  0.63186542  0.75679397  0.55101703    -0.60400
H751        H  0.60392992  0.73676448  0.55246056     0.43600
H752        H  0.78936784  0.67418805  0.44991015     0.43600
C753        C  0.55353040  0.69675915  0.70570743    -0.05500
C754        C  0.53203373  0.66680895  0.73747739    -0.32900
C755        C  0.48369062  0.66361831  0.73982578     0.36400
C756        C  0.45601832  0.69060689  0.70997394    -0.05800
C757        C  0.47747913  0.71828126  0.67630311    -0.32800
C758        C  0.52579334  0.72123861  0.67369778     0.36300
H759        H  0.55266421  0.64699115  0.76185967     0.16600
O760        O  0.46403210  0.63589326  0.77301299    -0.60300
H761        H  0.45670148  0.73894210  0.65272854     0.16600
O762        O  0.54520936  0.75035384  0.64158409    -0.60400
H763        H  0.54418817  0.73290767  0.61211304     0.43600
H764        H  0.46104961  0.65588105  0.80073765     0.43600
C765        C  0.70730454  0.54973305  0.69443686    -0.05500
C766        C  0.67925554  0.52381521  0.72458229    -0.32900
C767        C  0.68009787  0.47539168  0.72373148     0.36400
C768        C  0.70954979  0.45204996  0.69248206    -0.05800
C769        C  0.73424515  0.47799891  0.65955810    -0.32800
C770        C  0.73346497  0.52643295  0.66047263     0.36300
H771        H  0.65814896  0.54103343  0.75039381     0.16600
O772        O  0.65325592  0.45140401  0.75475062    -0.60300
H773        H  0.75609421  0.46085406  0.63431684     0.16600
O774        O  0.75854444  0.55061137  0.62813832    -0.60400
H775        H  0.79117671  0.54975137  0.63923884     0.43600
H776        H  0.62365485  0.44515707  0.73828419     0.43600
C777        C  0.67656865  0.80464610  0.82184720    -0.05500
C778        C  0.63481589  0.82878695  0.82885263    -0.32900
C779        C  0.63162456  0.86278543  0.86316071     0.36400
C780        C  0.67122770  0.87469369  0.88921505    -0.05800
C781        C  0.71276477  0.85000560  0.88265610    -0.32800
C782        C  0.71541982  0.81466280  0.84972269     0.36300
H783        H  0.60457695  0.82100255  0.80787882     0.16600
O784        O  0.59022292  0.88543151  0.86987272    -0.60300
H785        H  0.74333342  0.85863074  0.90280495     0.16600
O786        O  0.75648738  0.79106684  0.84411183    -0.60400
H787        H  0.77303807  0.80749454  0.81891781     0.43600
H788        H  0.57341807  0.86668159  0.89322612     0.43600
C789        C  0.82672383  0.67312680  0.80230803    -0.05500
C790        C  0.86051691  0.70825096  0.80254107    -0.32900
C791        C  0.89286818  0.71101658  0.83843342     0.36400
C792        C  0.89200870  0.67797959  0.87406559    -0.05800
C793        C  0.85933206  0.64207374  0.87320246    -0.32800
C794        C  0.82673903  0.63943722  0.83761313     0.36300
H795        H  0.86068724  0.73467228  0.77587939     0.16600
O796        O  0.92450745  0.74655687  0.83904483    -0.60300
H797        H  0.85884047  0.61640769  0.90057690     0.16600
O798        O  0.79475335  0.60419198  0.83801824    -0.60400
H799        H  0.80800498  0.57986381  0.81772694     0.43600
H800        H  0.90827461  0.77267464  0.85441062     0.43600
C801        C  0.80922076  0.82173599  0.66381638    -0.05500
C802        C  0.83941663  0.81893828  0.62581488    -0.32900
C803        C  0.87451398  0.85172190  0.61960359     0.36400
C804        C  0.87977623  0.88789892  0.65159714    -0.05800
C805        C  0.84924877  0.89139646  0.68914757    -0.32800
C806        C  0.81392002  0.85866055  0.69535156     0.36300
H807        H  0.83596873  0.79107545  0.60095958     0.16600
O808        O  0.90346409  0.84838893  0.58209654    -0.60300
H809        H  0.85359398  0.91893172  0.71421810     0.16600
O810        O  0.78613025  0.86143150  0.73375361    -0.60400
H811        H  0.76151391  0.88412349  0.72563750     0.43600
H812        H  0.92791821  0.82595358  0.59132803     0.43600
loop_ 
_geom_bond_atom_site_label_1 
_geom_bond_atom_site_label_2 
_geom_bond_distance 
_geom_bond_site_symmetry_2 
_ccdc_geom_bond_type 
O1           C16   1.258       .  A
O1           Al9   1.881       .  S
C2           O12   1.258       .  A
C2            O3   1.262       .  A
C2          C789   1.467       .  S
O3           Al5   1.912       .  S
O4            C6   1.259       .  A
O4           Al5   1.890       .  S
Al5          O13   1.887       .  S
Al5          O15   1.910       .  S
Al5          O14   1.775       .  S
C6           O19   1.264       .  A
C6          C777   1.469       .  S
O7           C17   1.260       .  A
O7           Al9   1.892       .  S
O8           C21   1.259       .  A
O8          Al18   1.879       .  S
Al9          O22   1.917       .  S
Al9          O19   1.925       .  S
Al9          O14   1.774       .  S
O10          C17   1.263       .  A
O10         Al18   1.915       .  S
O11          C20   1.264       .  A
O11         Al18   1.917       .  S
O12         Al18   1.883       .  S
O13          C20   1.260       .  A
O14         Al18   1.775       .  S
O15          C16   1.264       .  A
C16         C753   1.474       .  S
C17         C801   1.472       .  S
C20         C765   1.476       .  S
C21          O22   1.265       .  A
C21         C741   1.471       .  S
O23          C38   1.261       .  A
O23         Al31   1.886       .  S
C24          O34   1.260       .  A
C24          O25   1.262       .  A
C24         C708   1.470       .  S
O25         Al27   1.902       .  S
O26          C28   1.260       .  A
O26         Al27   1.903       .  S
Al27         O35   1.897       .  S
Al27         O37   1.918       .  S
Al27         O36   1.775       .  S
C28          O41   1.259       .  A
C28         C729   1.474       .  S
O29          C39   1.260       .  A
O29         Al31   1.892       .  S
O30          C43   1.261       .  A
O30         Al40   1.893       .  S
Al31         O44   1.905       .  S
Al31         O41   1.911       .  S
Al31         O36   1.780       .  S
O32          C39   1.262       .  A
O32         Al40   1.918       .  S
O33          C42   1.264       .  A
O33         Al40   1.920       .  S
O34         Al40   1.899       .  S
O35          C42   1.261       .  A
O36         Al40   1.779       .  S
O37          C38   1.266       .  A
C38         C768   1.478       .  S
C39         C717   1.461       .  S
C42         C693   1.484       .  S
C43          O44   1.262       .  A
C43         C684   1.475       .  S
O45          C60   1.257       .  A
O45         Al53   1.887       .  S
C46          O56   1.259       .  A
C46          O47   1.263       .  A
C46         C633   1.473       .  S
O47         Al49   1.912       .  S
O48          C50   1.257       .  A
O48         Al49   1.874       .  S
Al49         O57   1.888       .  S
Al49         O59   1.919       .  S
Al49         O58   1.784       .  S
C50          O63   1.266       .  A
C50         C621   1.474       .  S
O51          C61   1.260       .  A
O51         Al53   1.892       .  S
O52          C65   1.258       .  A
O52         Al62   1.879       .  S
Al53         O66   1.916       .  S
Al53         O63   1.919       .  S
Al53         O58   1.779       .  S
O54          C61   1.265       .  A
O54         Al62   1.925       .  S
O55          C64   1.268       .  A
O55         Al62   1.926       .  S
O56         Al62   1.885       .  S
O57          C64   1.260       .  A
O58         Al62   1.779       .  S
O59          C60   1.262       .  A
C60         C648   1.469       .  S
C61         C696   1.489       .  S
C64         C669   1.481       .  S
C65          O66   1.263       .  A
C65         C657   1.463       .  S
O67          C82   1.261       .  A
O67         Al75   1.889       .  S
C68          O78   1.257       .  A
C68          O69   1.262       .  A
C68         C588   1.455       .  S
O69         Al71   1.906       .  S
O70          C72   1.255       .  A
O70         Al71   1.882       .  S
Al71         O79   1.880       .  S
Al71         O81   1.899       .  S
Al71         O80   1.782       .  S
C72          O85   1.257       .  A
C72         C597   1.460       .  S
O73          C83   1.259       .  A
O73         Al75   1.885       .  S
O74          C87   1.259       .  A
O74         Al84   1.887       .  S
Al75         O88   1.900       .  S
Al75         O85   1.900       .  S
Al75         O80   1.781       .  S
O76          C83   1.262       .  A
O76         Al84   1.914       .  S
O77          C86   1.260       .  A
O77         Al84   1.904       .  S
O78         Al84   1.877       .  S
O79          C86   1.255       .  A
O80         Al84   1.789       .  S
O81          C82   1.262       .  A
C82         C576   1.476       .  S
C83         C609   1.474       .  S
C86         C636   1.478       .  S
C87          O88   1.262       .  A
C87         C756   1.469       .  S
O89         C104   1.260       .  A
O89         Al97   1.896       .  S
C90         O100   1.261       .  A
C90          O91   1.263       .  A
C90         C540   1.474       .  S
O91         Al93   1.913       .  S
O92          C94   1.259       .  A
O92         Al93   1.882       .  S
Al93        O101   1.886       .  S
Al93        O103   1.900       .  S
Al93        O102   1.783       .  S
C94         O107   1.262       .  A
C94         C552   1.459       .  S
O95         C105   1.257       .  A
O95         Al97   1.890       .  S
O96         C109   1.260       .  A
O96        Al106   1.884       .  S
Al97        O110   1.910       .  S
Al97        O107   1.908       .  S
Al97        O102   1.779       .  S
O98         C105   1.263       .  A
O98        Al106   1.930       .  S
O99         C108   1.264       .  A
O99        Al106   1.919       .  S
O100       Al106   1.893       .  S
O101        C108   1.259       .  A
O102       Al106   1.784       .  S
O103        C104   1.259       .  A
C104        C525   1.483       .  S
C105        C561   1.485       .  S
C108        C513   1.480       .  S
C109        O110   1.264       .  A
C109        C573   1.475       .  S
O111        C126   1.262       .  A
O111       Al119   1.881       .  S
C112        O122   1.258       .  A
C112        O113   1.260       .  A
C112        C480   1.464       .  S
O113       Al115   1.900       .  S
O114        C116   1.256       .  A
O114       Al115   1.894       .  S
Al115       O123   1.892       .  S
Al115       O125   1.913       .  S
Al115       O124   1.777       .  S
C116        O129   1.259       .  A
C116        C501   1.464       .  S
O117        C127   1.261       .  A
O117       Al119   1.884       .  S
O118        C131   1.258       .  A
O118       Al128   1.890       .  S
Al119       O132   1.908       .  S
Al119       O129   1.919       .  S
Al119       O124   1.784       .  S
O120        C127   1.265       .  A
O120       Al128   1.917       .  S
O121        C130   1.262       .  A
O121       Al128   1.907       .  S
O122       Al128   1.888       .  S
O123        C130   1.260       .  A
O124       Al128   1.785       .  S
O125        C126   1.265       .  A
C126        C744   1.473       .  S
C127        C492   1.466       .  S
C130        C465   1.482       .  S
C131        O132   1.260       .  A
C131        C528   1.473       .  S
O133        C148   1.255       .  A
O133       Al141   1.881       .  S
C134        O144   1.257       .  A
C134        O135   1.263       .  A
C134        C417   1.479       .  S
O135       Al137   1.921       .  S
O136        C138   1.259       .  A
O136       Al137   1.872       .  S
Al137       O145   1.882       .  S
Al137       O147   1.914       .  S
Al137       O146   1.779       .  S
C138        O151   1.267       .  A
C138        C624   1.473       .  S
O139        C149   1.256       .  A
O139       Al141   1.874       .  S
O140        C153   1.256       .  A
O140       Al150   1.872       .  S
Al141       O154   1.925       .  S
Al141       O151   1.923       .  S
Al141       O146   1.783       .  S
O142        C149   1.261       .  A
O142       Al150   1.912       .  S
O143        C152   1.265       .  A
O143       Al150   1.919       .  S
O144       Al150   1.887       .  S
O145        C152   1.260       .  A
O146       Al150   1.785       .  S
O147        C148   1.259       .  A
C148        C453   1.460       .  S
C149        C516   1.475       .  S
C152        C441   1.470       .  S
C153        O154   1.265       .  A
C153        C432   1.465       .  S
O155        C170   1.264       .  A
O155       Al163   1.889       .  S
C156        O166   1.258       .  A
C156        O157   1.261       .  A
C156        C381   1.466       .  S
O157       Al159   1.904       .  S
O158        C160   1.258       .  A
O158       Al159   1.902       .  S
Al159       O167   1.888       .  S
Al159       O169   1.911       .  S
Al159       O168   1.779       .  S
C160        O173   1.258       .  A
C160        C405   1.483       .  S
O161        C171   1.261       .  A
O161       Al163   1.882       .  S
O162        C175   1.260       .  A
O162       Al172   1.898       .  S
Al163       O176   1.910       .  S
Al163       O173   1.909       .  S
Al163       O168   1.782       .  S
O164        C171   1.265       .  A
O164       Al172   1.920       .  S
O165        C174   1.262       .  A
O165       Al172   1.913       .  S
O166       Al172   1.890       .  S
O167        C174   1.258       .  A
O168       Al172   1.789       .  S
O169        C170   1.266       .  A
C170        C681   1.476       .  S
C171        C396   1.464       .  S
C174        C420   1.487       .  S
C175        O176   1.261       .  A
C175        C468   1.482       .  S
N177        C182   1.352   1_655  A
N177        C181   1.355       .  A
N177        H209   1.041       .  S
N178        C185   1.350       .  A
N178        C186   1.349   1_545  A
N179        C184   1.354   1_655  A
N179        C183   1.352       .  A
N179        H210   1.041       .  S
N180        C187   1.350       .  A
N180        C188   1.352   1_545  A
C181        C189   1.387       .  A
C181        C197   1.416       .  A
C182        C198   1.415       .  A
C182        C190   1.388       .  A
C183        C191   1.387       .  A
C183        C200   1.414       .  A
C184        C199   1.415       .  A
C184        C192   1.387       .  A
C185        C197   1.410       .  A
C185        C193   1.386       .  A
C186        C200   1.408       .  A
C186        C194   1.386       .  A
C187        C195   1.386       .  A
C187        C198   1.411       .  A
C188        C196   1.386       .  A
C188        C199   1.413       .  A
C189        C190   1.372   1_655  A
C189        H201   1.082       .  S
C190        H202   1.082       .  S
C191        C192   1.375   1_655  A
C191        H203   1.082       .  S
C192        H204   1.082       .  S
C193        C194   1.373   1_545  A
C193        H205   1.082       .  S
C194        H206   1.082       .  S
C195        C196   1.374   1_545  A
C195        H207   1.083       .  S
C196        H208   1.082       .  S
C197        C408   1.493       .  S
C198        C456   1.483       .  S
C199        C564   1.491       .  S
C200        C504   1.481       .  S
N211        C216   1.349       .  A
N211        C215   1.349   1_565  A
N211        H243   1.041       .  S
N212        C219   1.350       .  A
N212        C220   1.350   1_455  A
N213        C218   1.350   1_545  A
N213        C217   1.350       .  A
N213        H244   1.040       .  S
N214        C221   1.349       .  A
N214        C222   1.348   1_455  A
C215        C223   1.385       .  A
C215        C231   1.408       .  A
C216        C232   1.412       .  A
C216        C224   1.388       .  A
C217        C225   1.388       .  A
C217        C234   1.413       .  A
C218        C233   1.410       .  A
C218        C226   1.386       .  A
C219        C231   1.410       .  A
C219        C227   1.386       .  A
C220        C234   1.411       .  A
C220        C228   1.387       .  A
C221        C229   1.387       .  A
C221        C232   1.409       .  A
C222        C230   1.386       .  A
C222        C233   1.407       .  A
C223        C224   1.377   1_545  A
C223        H235   1.082       .  S
C224        H236   1.082       .  S
C225        C226   1.377   1_545  A
C225        H237   1.081       .  S
C226        H238   1.082       .  S
C227        C228   1.370   1_455  A
C227        H239   1.082       .  S
C228        H240   1.082       .  S
C229        C230   1.372   1_455  A
C229        H241   1.082       .  S
C230        H242   1.082       .  S
C231        C645   1.480       .  S
C232        C600   1.483       .  S
C233        C804   1.478       .  S
C234        C720   1.479       .  S
N245        C250   1.350   1_565  A
N245        C249   1.348       .  A
N245        H277   1.041       .  S
N246        C253   1.347   1_554  A
N246        C254   1.348       .  A
N247        C252   1.349   1_565  A
N247        C251   1.351       .  A
N247        H278   1.041       .  S
N248        C255   1.349   1_554  A
N248        C256   1.347       .  A
C249        C257   1.386       .  A
C249        C265   1.407       .  A
C250        C266   1.410       .  A
C250        C258   1.387       .  A
C251        C259   1.386       .  A
C251        C268   1.409       .  A
C252        C267   1.410       .  A
C252        C260   1.388       .  A
C253        C265   1.405       .  A
C253        C261   1.386       .  A
C254        C268   1.407       .  A
C254        C262   1.386       .  A
C255        C263   1.387       .  A
C255        C266   1.411       .  A
C256        C264   1.386       .  A
C256        C267   1.409       .  A
C257        C258   1.376   1_565  A
C257        H269   1.082       .  S
C258        H270   1.082       .  S
C259        C260   1.376   1_565  A
C259        H271   1.082       .  S
C260        H272   1.082       .  S
C261        C262   1.372   1_556  A
C261        H273   1.082       .  S
C262        H274   1.082       .  S
C263        C264   1.376   1_556  A
C263        H275   1.082       .  S
C264        H276   1.082       .  S
C265        C612   1.476       .  S
C266        C660   1.486       .  S
C267        C444   1.480       .  S
C268        C549   1.484       .  S
N279        C284   1.352       .  A
N279        C283   1.350   1_455  A
N279        H311   1.042   1_455  S
N280        C287   1.344   1_556  A
N280        C288   1.348       .  A
N281        C286   1.352       .  A
N281        C285   1.351   1_455  A
N281        H312   1.045       .  S
N282        C289   1.348   1_556  A
N282        C290   1.348       .  A
C283        C291   1.386       .  A
C283        C299   1.409       .  A
C284        C300   1.412       .  A
C284        C292   1.388       .  A
C285        C293   1.386       .  A
C285        C302   1.404       .  A
C286        C301   1.399       .  A
C286        C294   1.385       .  A
C287        C299   1.405       .  A
C287        C295   1.387       .  A
C288        C302   1.409       .  A
C288        C296   1.386       .  A
C289        C297   1.386       .  A
C289        C300   1.410       .  A
C290        C298   1.386       .  A
C290        C301   1.411       .  A
C291        C292   1.374   1_655  A
C291        H303   1.082       .  S
C292        H304   1.082       .  S
C293        C294   1.371   1_655  A
C293        H305   1.083       .  S
C294        H306   1.083       .  S
C295        C296   1.377   1_554  A
C295        H307   1.082       .  S
C296        H308   1.082       .  S
C297        C298   1.377   1_554  A
C297        H309   1.082       .  S
C298        H310   1.082       .  S
C299        C393   1.475       .  S
C300        C429   1.485       .  S
C301        C672   1.475       .  S
C302        C732   1.484       .  S
N313        C318   1.352       .  A
N313        C317   1.349   1_545  A
N313        H345   1.040       .  S
N314        C321   1.350       .  A
N314        C322   1.352   1_554  A
N315        C320   1.352   1_565  A
N315        C319   1.353       .  A
N315        H346   1.039       .  S
N316        C323   1.349   1_556  A
N316        C324   1.347       .  A
C317        C325   1.387   1_565  A
C317        C333   1.409       .  A
C318        C334   1.412       .  A
C318        C326   1.387       .  A
C319        C327   1.388       .  A
C319        C336   1.416       .  A
C320        C335   1.413       .  A
C320        C328   1.386       .  A
C321        C333   1.412       .  A
C321        C329   1.387       .  A
C322        C336   1.412       .  A
C322        C330   1.386       .  A
C323        C331   1.385       .  A
C323        C334   1.408       .  A
C324        C332   1.387       .  A
C324        C335   1.410       .  A
C325        C326   1.375       .  A
C325        H337   1.082   1_545  S
C326        H338   1.082       .  S
C327        C328   1.373   1_565  A
C327        H339   1.081       .  S
C328        H340   1.082       .  S
C329        C330   1.372   1_554  A
C329        H341   1.082       .  S
C330        H342   1.082       .  S
C331        C332   1.373   1_554  A
C331        H343   1.082       .  S
C332        H344   1.082       .  S
C333        C489   1.478       .  S
C334        C384   1.483       .  S
C335        C705   1.479       .  S
C336        C780   1.486       .  S
N347        C352   1.351   1_655  A
N347        C351   1.349       .  A
N347        H379   1.042       .  S
N348        C355   1.347   1_556  A
N348        C356   1.346       .  A
N349        C354   1.348       .  A
N349        C353   1.350   1_455  A
N349        H380   1.041       .  S
N350        C357   1.347       .  A
N350        C358   1.348   1_554  A
C351        C359   1.387       .  A
C351        C367   1.412       .  A
C352        C368   1.408       .  A
C352        C360   1.385   1_455  A
C353        C361   1.387       .  A
C353        C370   1.407       .  A
C354        C369   1.407       .  A
C354        C362   1.386       .  A
C355        C367   1.408       .  A
C355        C363   1.387       .  A
C356        C370   1.405       .  A
C356        C364   1.386       .  A
C357        C365   1.387       .  A
C357        C368   1.408       .  A
C358        C366   1.385   1_556  A
C358        C369   1.405       .  A
C359        C360   1.376       .  A
C359        H371   1.082       .  S
C360        H372   1.082   1_655  S
C361        C362   1.376   1_655  A
C361        H373   1.082       .  S
C362        H374   1.083       .  S
C363        C364   1.376   1_554  A
C363        H375   1.082       .  S
C364        H376   1.083       .  S
C365        C366   1.374       .  A
C365        H377   1.082       .  S
C366        H378   1.082   1_554  S
C367        C477   1.483       .  S
C368        C537   1.482       .  S
C369        C585   1.477       .  S
C370        C792   1.472       .  S
C381        C382   1.401       .  A
C381        C386   1.406       .  A
C382        C383   1.401       .  A
C382        H387   1.084       .  S
C383        C384   1.410       .  A
C383        O388   1.371       .  S
C384        C385   1.401       .  A
C385        C386   1.395       .  A
C385        H389   1.084       .  S
C386        O390   1.371       .  S
O388        H392   0.991       .  S
O390        H391   0.992       .  S
C393        C394   1.401       .  A
C393        C398   1.406       .  A
C394        C395   1.397       .  A
C394        H399   1.084       .  S
C395        C396   1.408       .  A
C395        O400   1.372       .  S
C396        C397   1.401       .  A
C397        C398   1.394       .  A
C397        H401   1.084       .  S
C398        O402   1.373       .  S
O400        H404   0.991       .  S
O402        H403   0.991       .  S
C405        C406   1.404       .  A
C405        C410   1.414       .  A
C406        C407   1.400       .  A
C406        H411   1.081       .  S
C407        C408   1.411       .  A
C407        O412   1.372       .  S
C408        C409   1.402       .  A
C409        C410   1.399       .  A
C409        H413   1.084       .  S
C410        O414   1.372       .  S
O412        H416   0.992       .  S
O414        H415   0.992       .  S
C417        C418   1.402       .  A
C417        C422   1.411       .  A
C418        C419   1.399       .  A
C418        H423   1.084       .  S
C419        C420   1.414       .  A
C419        O424   1.371       .  S
C420        C421   1.407       .  A
C421        C422   1.400       .  A
C421        H425   1.083       .  S
C422        O426   1.372       .  S
O424        H428   0.992       .  S
O426        H427   0.992       .  S
C429        C430   1.406       .  A
C429        C434   1.408       .  A
C430        C431   1.401       .  A
C430        H435   1.084       .  S
C431        C432   1.406       .  A
C431        O436   1.372       .  S
C432        C433   1.400       .  A
C433        C434   1.396       .  A
C433        H437   1.084       .  S
C434        O438   1.372       .  S
O436        H440   0.992       .  S
O438        H439   0.991       .  S
C441        C442   1.403       .  A
C441        C446   1.409       .  A
C442        C443   1.397       .  A
C442        H447   1.082       .  S
C443        C444   1.407       .  A
C443        O448   1.373       .  S
C444        C445   1.401       .  A
C445        C446   1.396       .  A
C445        H449   1.084       .  S
C446        O450   1.372       .  S
O448        H452   0.992       .  S
O450        H451   0.992       .  S
C453        C454   1.402       .  A
C453        C458   1.401       .  A
C454        C455   1.400       .  A
C454        H459   1.084       .  S
C455        C456   1.408       .  A
C455        O460   1.372       .  S
C456        C457   1.404       .  A
C457        C458   1.395       .  A
C457        H461   1.084       .  S
C458        O462   1.371       .  S
O460        H464   0.992       .  S
O462        H463   0.992       .  S
C465        C466   1.406       .  A
C465        C470   1.411       .  A
C466        C467   1.399       .  A
C466        H471   1.084       .  S
C467        C468   1.410       .  A
C467        O472   1.371       .  S
C468        C469   1.406       .  A
C469        C470   1.399       .  A
C469        H473   1.084       .  S
C470        O474   1.372       .  S
O472        H476   0.992       .  S
O474        H475   0.992       .  S
C477        C478   1.404       .  A
C477        C482   1.410       .  A
C478        C479   1.398       .  A
C478        H483   1.083       .  S
C479        C480   1.406       .  A
C479        O484   1.372       .  S
C480        C481   1.401       .  A
C481        C482   1.395       .  A
C481        H485   1.084       .  S
C482        O486   1.372       .  S
O484        H488   0.992       .  S
O486        H487   0.992       .  S
C489        C490   1.402       .  A
C489        C494   1.406       .  A
C490        C491   1.397       .  A
C490        H495   1.084       .  S
C491        C492   1.409       .  A
C491        O496   1.372       .  S
C492        C493   1.402       .  A
C493        C494   1.395       .  A
C493        H497   1.084       .  S
C494        O498   1.372       .  S
O496        H500   0.992       .  S
O498        H499   0.991       .  S
C501        C502   1.400       .  A
C501        C506   1.407       .  A
C502        C503   1.398       .  A
C502        H507   1.084       .  S
C503        C504   1.407       .  A
C503        O508   1.372       .  S
C504        C505   1.402       .  A
C505        C506   1.400       .  A
C505        H509   1.084       .  S
C506        O510   1.372       .  S
O508        H512   0.992       .  S
O510        H511   0.992       .  S
C513        C514   1.407       .  A
C513        C518   1.410       .  A
C514        C515   1.399       .  A
C514        H519   1.083       .  S
C515        C516   1.409       .  A
C515        O520   1.372       .  S
C516        C517   1.404       .  A
C517        C518   1.395       .  A
C517        H521   1.084       .  S
C518        O522   1.372       .  S
O520        H524   0.992       .  S
O522        H523   0.992       .  S
C525        C526   1.406       .  A
C525        C530   1.415       .  A
C526        C527   1.399       .  A
C526        H531   1.083       .  S
C527        C528   1.408       .  A
C527        O532   1.372       .  S
C528        C529   1.401       .  A
C529        C530   1.397       .  A
C529        H533   1.084       .  S
C530        O534   1.372       .  S
O532        H536   0.992       .  S
O534        H535   0.992       .  S
C537        C538   1.402       .  A
C537        C542   1.407       .  A
C538        C539   1.397       .  A
C538        H543   1.084       .  S
C539        C540   1.411       .  A
C539        O544   1.372       .  S
C540        C541   1.403       .  A
C541        C542   1.398       .  A
C541        H545   1.084       .  S
C542        O546   1.372       .  S
O544        H548   0.992       .  S
O546        H547   0.991       .  S
C549        C550   1.405       .  A
C549        C554   1.410       .  A
C550        C551   1.396       .  A
C550        H555   1.084       .  S
C551        C552   1.404       .  A
C551        O556   1.372       .  S
C552        C553   1.398       .  A
C553        C554   1.396       .  A
C553        H557   1.082       .  S
C554        O558   1.372       .  S
O556        H560   0.991       .  S
O558        H559   0.992       .  S
C561        C562   1.407       .  A
C561        C566   1.412       .  A
C562        C563   1.404       .  A
C562        H567   1.083       .  S
C563        C564   1.408       .  A
C563        O568   1.372       .  S
C564        C565   1.402       .  A
C565        C566   1.400       .  A
C565        H569   1.084       .  S
C566        O570   1.371       .  S
O568        H572   0.991       .  S
O570        H571   0.992       .  S
C573        C574   1.403       .  A
C573        C578   1.410       .  A
C574        C575   1.395       .  A
C574        H579   1.084       .  S
C575        C576   1.412       .  A
C575        O580   1.372       .  S
C576        C577   1.404       .  A
C577        C578   1.396       .  A
C577        H581   1.083       .  S
C578        O582   1.372       .  S
O580        H584   0.992       .  S
O582        H583   0.992       .  S
C585        C586   1.402       .  A
C585        C590   1.408       .  A
C586        C587   1.392       .  A
C586        H591   1.084       .  S
C587        C588   1.403       .  A
C587        O592   1.372       .  S
C588        C589   1.400       .  A
C589        C590   1.399       .  A
C589        H593   1.084       .  S
C590        O594   1.372       .  S
O592        H596   0.992       .  S
O594        H595   0.992       .  S
C597        C598   1.401       .  A
C597        C602   1.403       .  A
C598        C599   1.400       .  A
C598        H603   1.084       .  S
C599        C600   1.409       .  A
C599        O604   1.373       .  S
C600        C601   1.403       .  A
C601        C602   1.393       .  A
C601        H605   1.084       .  S
C602        O606   1.370       .  S
O604        H608   0.992       .  S
O606        H607   0.991       .  S
C609        C610   1.403       .  A
C609        C614   1.412       .  A
C610        C611   1.393       .  A
C610        H615   1.080       .  S
C611        C612   1.404       .  A
C611        O616   1.373       .  S
C612        C613   1.401       .  A
C613        C614   1.398       .  A
C613        H617   1.084       .  S
C614        O618   1.372       .  S
O616        H620   0.991       .  S
O618        H619   0.992       .  S
C621        C622   1.401       .  A
C621        C626   1.413       .  A
C622        C623   1.393       .  A
C622        H627   1.084       .  S
C623        C624   1.412       .  A
C623        O628   1.372       .  S
C624        C625   1.402       .  A
C625        C626   1.397       .  A
C625        H629   1.084       .  S
C626        O630   1.372       .  S
O628        H632   0.992       .  S
O630        H631   0.992       .  S
C633        C634   1.403       .  A
C633        C638   1.409       .  A
C634        C635   1.396       .  A
C634        H639   1.084       .  S
C635        C636   1.412       .  A
C635        O640   1.372       .  S
C636        C637   1.405       .  A
C637        C638   1.396       .  A
C637        H641   1.084       .  S
C638        O642   1.372       .  S
O640        H644   0.992       .  S
O642        H643   0.993       .  S
C645        C646   1.402       .  A
C645        C650   1.407       .  A
C646        C647   1.398       .  A
C646        H651   1.084       .  S
C647        C648   1.409       .  A
C647        O652   1.372       .  S
C648        C649   1.401       .  A
C649        C650   1.396       .  A
C649        H653   1.082       .  S
C650        O654   1.372       .  S
O652        H656   0.992       .  S
O654        H655   0.992       .  S
C657        C658   1.400       .  A
C657        C662   1.404       .  A
C658        C659   1.399       .  A
C658        H663   1.084       .  S
C659        C660   1.409       .  A
C659        O664   1.373       .  S
C660        C661   1.405       .  A
C661        C662   1.397       .  A
C661        H665   1.084       .  S
C662        O666   1.371       .  S
O664        H668   0.992       .  S
O666        H667   0.992       .  S
C669        C670   1.404       .  A
C669        C674   1.415       .  A
C670        C671   1.394       .  A
C670        H675   1.084       .  S
C671        C672   1.406       .  A
C671        O676   1.373       .  S
C672        C673   1.401       .  A
C673        C674   1.403       .  A
C673        H677   1.083       .  S
C674        O678   1.372       .  S
O676        H680   0.992       .  S
O678        H679   0.991       .  S
C681        C682   1.403       .  A
C681        C686   1.411       .  A
C682        C683   1.396       .  A
C682        H687   1.084       .  S
C683        C684   1.412       .  A
C683        O688   1.372       .  S
C684        C685   1.402       .  A
C685        C686   1.396       .  A
C685        H689   1.084       .  S
C686        O690   1.371       .  S
O688        H692   0.992       .  S
O690        H691   0.991       .  S
C693        C694   1.405       .  A
C693        C698   1.411       .  A
C694        C695   1.402       .  A
C694        H699   1.084       .  S
C695        C696   1.413       .  A
C695        O700   1.371       .  S
C696        C697   1.407       .  A
C697        C698   1.401       .  A
C697        H701   1.083       .  S
C698        O702   1.372       .  S
O700        H704   0.992       .  S
O702        H703   0.992       .  S
C705        C706   1.403       .  A
C705        C710   1.404       .  A
C706        C707   1.401       .  A
C706        H711   1.084       .  S
C707        C708   1.409       .  A
C707        O712   1.371       .  S
C708        C709   1.403       .  A
C709        C710   1.393       .  A
C709        H713   1.084       .  S
C710        O714   1.372       .  S
O712        H716   0.991       .  S
O714        H715   0.991       .  S
C717        C718   1.402       .  A
C717        C722   1.404       .  A
C718        C719   1.398       .  A
C718        H723   1.084       .  S
C719        C720   1.407       .  A
C719        O724   1.372       .  S
C720        C721   1.403       .  A
C721        C722   1.395       .  A
C721        H725   1.084       .  S
C722        O726   1.372       .  S
O724        H728   0.991       .  S
O726        H727   0.991       .  S
C729        C730   1.404       .  A
C729        C734   1.407       .  A
C730        C731   1.399       .  A
C730        H735   1.084       .  S
C731        C732   1.408       .  A
C731        O736   1.372       .  S
C732        C733   1.406       .  A
C733        C734   1.400       .  A
C733        H737   1.084       .  S
C734        O738   1.372       .  S
O736        H740   0.992       .  S
O738        H739   0.991       .  S
C741        C742   1.404       .  A
C741        C746   1.407       .  A
C742        C743   1.396       .  A
C742        H747   1.084       .  S
C743        C744   1.410       .  A
C743        O748   1.372       .  S
C744        C745   1.404       .  A
C745        C746   1.395       .  A
C745        H749   1.084       .  S
C746        O750   1.371       .  S
O748        H752   0.992       .  S
O750        H751   0.991       .  S
C753        C754   1.405       .  A
C753        C758   1.410       .  A
C754        C755   1.395       .  A
C754        H759   1.084       .  S
C755        C756   1.408       .  A
C755        O760   1.372       .  S
C756        C757   1.403       .  A
C757        C758   1.394       .  A
C757        H761   1.084       .  S
C758        O762   1.372       .  S
O760        H764   0.992       .  S
O762        H763   0.991       .  S
C765        C766   1.404       .  A
C765        C770   1.409       .  A
C766        C767   1.397       .  A
C766        H771   1.084       .  S
C767        C768   1.411       .  A
C767        O772   1.372       .  S
C768        C769   1.405       .  A
C769        C770   1.398       .  A
C769        H773   1.084       .  S
C770        O774   1.372       .  S
O772        H776   0.992       .  S
O774        H775   0.992       .  S
C777        C778   1.402       .  A
C777        C782   1.408       .  A
C778        C779   1.399       .  A
C778        H783   1.084       .  S
C779        C780   1.408       .  A
C779        O784   1.372       .  S
C780        C781   1.403       .  A
C781        C782   1.398       .  A
C781        H785   1.084       .  S
C782        O786   1.372       .  S
O784        H788   0.992       .  S
O786        H787   0.991       .  S
C789        C790   1.405       .  A
C789        C794   1.409       .  A
C790        C791   1.396       .  A
C790        H795   1.084       .  S
C791        C792   1.404       .  A
C791        O796   1.372       .  S
C792        C793   1.399       .  A
C793        C794   1.394       .  A
C793        H797   1.084       .  S
C794        O798   1.372       .  S
O796        H800   0.992       .  S
O798        H799   0.992       .  S
C801        C802   1.404       .  A
C801        C806   1.410       .  A
C802        C803   1.395       .  A
C802        H807   1.084       .  S
C803        C804   1.404       .  A
C803        O808   1.372       .  S
C804        C805   1.401       .  A
C805        C806   1.399       .  A
C805        H809   1.084       .  S
C806        O810   1.372       .  S
O808        H812   0.991       .  S
O810        H811   0.991       .  S
