geometry optimzed in LAMMPS
_audit_creation_date              2020-12-01 
_audit_creation_method            'lammps2cif' 
_symmetry_space_group_name_H-M    'P1' 
_symmetry_Int_Tables_number       1 
_symmetry_cell_setting            triclinic 
loop_ 
_symmetry_equiv_pos_as_xyz 
  x,y,z 
_cell_length_a                    29.32621991 
_cell_length_b                    32.62134957853252 
_cell_length_c                    32.620978046161305 
_cell_angle_alpha                 90.0990142977482 
_cell_angle_beta                  89.91082576163093 
_cell_angle_gamma                 89.98251769401358 
loop_ 
_atom_site_label 
_atom_site_type_symbol 
_atom_site_fract_x 
_atom_site_fract_y 
_atom_site_fract_z 
_atom_site_charge 
C1          C  0.22067059  0.57160072  0.27881714     0.79700
N2          N  0.22170961  0.61310405  0.28325122    -0.78600
C3          C  0.25289897  0.63576851  0.26237323     0.82100
N4          N  0.28189162  0.61662724  0.23631623    -0.78600
C5          C  0.28059034  0.57542625  0.23096099     0.82200
N6          N  0.25030428  0.55285809  0.25284807    -0.80300
C7          C  0.28169696  0.87648557  0.28284201     0.79700
N8          N  0.28101653  0.83486562  0.28397121    -0.78600
C9          C  0.24892535  0.81357834  0.26283215     0.82100
N10         N  0.21843147  0.83441192  0.23959566    -0.78600
C11         C  0.21946614  0.87599297  0.23772068     0.82200
N12         N  0.25100434  0.89700495  0.25961093    -0.80300
Zr13       Zr  0.45482877  0.02278604  0.45330591     2.17500
O14         O  0.39005903  0.04982697  0.41498324    -0.51900
O15         O  0.48848809  0.07432544  0.40781925    -0.75100
O16         O  0.41353210  0.07490898  0.49254221    -0.81900
O17         O  0.45493174  0.92354486  0.38947851    -0.83600
O18         O  0.45089301  0.08551319  0.55252575    -0.79200
O19         O  0.41560954  0.98231950  0.40094885    -0.90900
O20         O  0.56432222  0.07785012  0.42083445    -0.76800
O21         O  0.51604356  0.05119062  0.49196569    -0.86300
O22         O  0.52293800  0.99381001  0.42580529    -0.86000
O23         O  0.44012205  0.00260567  0.52341363    -0.72800
O24         O  0.44821784  0.95008327  0.46316457    -0.84900
Zr25       Zr  0.56396064  0.92814832  0.54670557     2.26400
Zr26       Zr  0.50345467  0.02941699  0.56124078     2.06300
Zr27       Zr  0.51726492  0.92164284  0.43731373     2.10000
Zr28       Zr  0.58368308  0.02108276  0.46535022     1.78800
O29         O  0.49389985  0.85182775  0.42131902    -0.93700
O30         O  0.62061205  0.07901182  0.49884558    -0.41500
O31         O  0.57862790  0.94865015  0.47683041    -0.78100
O32         O  0.57304073  0.00093671  0.53512361    -0.96800
O33         O  0.49549966  0.95736177  0.57292814    -0.90100
O34         O  0.50357665  0.90013791  0.50650654    -0.93000
C35         C  0.52816377  0.09018745  0.40261609     1.00800
C36         C  0.42191766  0.94807239  0.38215050     1.13700
C37         C  0.41918123  0.09363727  0.52685038     1.04500
O38         O  0.53906070  0.09316705  0.58331656    -0.95100
O39         O  0.55724943  0.02179595  0.61662366    -0.90900
O40         O  0.59871862  0.96427772  0.60519459    -0.84000
C41         C  0.59014295  0.99741236  0.62531957     1.11100
O42         O  0.35587189  0.94290543  0.51385481    -0.97100
Zr43       Zr  0.43515229  0.92992015  0.53242700     1.88900
O44         O  0.52810001  0.87768650  0.59304369    -0.73700
O45         O  0.45426900  0.02691505  0.62139141    -0.53000
O46         O  0.39078174  0.94483678  0.59392811    -0.97700
O47         O  0.39881559  0.86944779  0.50303224    -0.54900
O48         O  0.45208051  0.87542693  0.58024489    -0.74300
C49         C  0.48786935  0.86292218  0.59889166     0.98100
O50         O  0.63044962  0.89161791  0.57264095    -0.63100
O51         O  0.55603035  0.92733725  0.37134465    -0.57900
O52         O  0.60858901  0.87880828  0.50697784    -0.94600
O53         O  0.58088708  0.87570110  0.44193446    -0.93000
O54         O  0.62281249  0.00718650  0.40090412    -0.93300
O55         O  0.66570986  0.01109900  0.47108832    -0.92100
C56         C  0.60890780  0.86522340  0.47000590     1.16900
H57         H  0.52621973  0.00011580  0.39706143     0.32900
H58         H  0.59937556  0.01201249  0.54886880     0.43700
H59         H  0.50316190  0.87059576  0.50835835     0.37200
H60         H  0.41165797  0.01340307  0.53366568     0.33700
H61         H  0.63935528  0.09190514  0.47714258     0.25500
H62         H  0.45833659  0.05396014  0.63471825     0.31500
H63         H  0.41216874  0.94072565  0.61701112     0.37400
H64         H  0.62644206  0.97701745  0.40019475     0.31800
H65         H  0.55871870  0.89875174  0.36138167     0.30700
H66         H  0.46336730  0.84895438  0.43393967     0.32400
H67         H  0.37885578  0.85880549  0.52508988     0.31300
H68         H  0.66932704  0.99205160  0.49445878     0.35300
H69         H  0.65621216  0.91106213  0.57017401     0.28100
H70         H  0.39173785  0.08005238  0.41736526     0.32300
H71         H  0.33712783  0.92697043  0.53341906     0.35200
H72         H  0.53365951  0.94014358  0.35262749     0.27800
H73         H  0.62527474  0.88833456  0.60245231     0.40600
H74         H  0.53790227  0.11131666  0.55905345     0.30700
H75         H  0.59571700  0.09888161  0.50391270     0.38300
H76         H  0.42341654  0.84883313  0.50059674     0.30200
H77         H  0.42283776  0.02764869  0.61038325     0.30200
H78         H  0.36268376  0.04182294  0.43085228     0.30500
C79         C  0.71679735  0.38194426  0.77596337     0.79700
N80         N  0.75119162  0.40037752  0.75516473    -0.78600
C81         C  0.78434457  0.37753152  0.73712526     0.82100
N82         N  0.78226166  0.33599466  0.73919246    -0.78600
C83         C  0.74766854  0.31704294  0.75943950     0.82200
N84         N  0.71518031  0.34035584  0.77788103    -0.80300
C85         C  0.77374129  0.07691381  0.78605602     0.79700
N86         N  0.77451498  0.11833473  0.78360556    -0.78600
C87         C  0.74458610  0.13890354  0.75980557     0.82100
N88         N  0.71291125  0.11748230  0.73824916    -0.78600
C89         C  0.71205321  0.07576795  0.73996443     0.82200
N90         N  0.74291789  0.05555070  0.76353705    -0.80300
C91         C  0.58266094  0.20324713  0.27764458     0.79700
N92         N  0.62896845  0.20250820  0.27795070    -0.78600
C93         C  0.65339534  0.22348948  0.24965470     0.82100
N94         N  0.63103909  0.24516379  0.22050652    -0.78600
C95         C  0.58468453  0.24606579  0.21926625     0.82200
N96         N  0.56029779  0.22521962  0.24824962    -0.80300
C97         C  0.92067962  0.24042719  0.27737602     0.79700
N98         N  0.94429193  0.21156049  0.25564912    -0.78600
C99         C  0.92127981  0.18291674  0.23315605     0.82100
N100        N  0.87485971  0.18344399  0.23251497    -0.78600
C101        C  0.85112631  0.21196207  0.25420354     0.82200
N102        N  0.87435427  0.24028675  0.27634047    -0.80300
Zr103      Zr  0.05744509  0.41667085  0.45614821     2.17500
O104        O  0.12908619  0.39047510  0.42832358    -0.51900
O105        O  0.02298629  0.36771251  0.40775470    -0.75100
O106        O  0.09141006  0.36017176  0.49562217    -0.81900
O107        O  0.06044336  0.51432983  0.39117120    -0.83600
O108        O  0.05805961  0.35625287  0.55831811    -0.81200
O109        O  0.09763599  0.45423506  0.40150619    -0.90900
O110        O  0.94606360  0.37536622  0.41091451    -0.76800
O111        O  0.99287352  0.39090315  0.49229239    -0.86300
O112        O  0.99220150  0.44983890  0.42769073    -0.86000
O113        O  0.06933822  0.43571774  0.52696641    -0.72800
O114        O  0.06745647  0.48888858  0.46794336    -0.84900
Zr115      Zr  0.94814816  0.51505007  0.54773433     2.26400
Zr116      Zr  0.00314621  0.41091088  0.56241809     2.06300
Zr117      Zr  0.00106825  0.52148987  0.44112342     2.10000
Zr118      Zr  0.92806839  0.42440592  0.46428321     1.78800
O119        O  0.03843351  0.58785972  0.43503169    -0.93700
O120        O  0.89494928  0.36104164  0.49034253    -0.41500
O121        O  0.93637912  0.49618043  0.47722123    -0.78100
O122        O  0.93616723  0.44274689  0.53490186    -0.96800
O123        O  0.01373817  0.48249460  0.57577296    -0.90100
O124        O  0.01203321  0.54118066  0.51091684    -0.93000
C125        C  0.98222415  0.35901261  0.39600630     1.00800
C126        C  0.09228128  0.48877722  0.38294930     1.13700
C127        C  0.08685244  0.34410901  0.53144053     1.04500
O128        O  0.96671425  0.34465043  0.57274098    -0.95100
O129        O  0.94666325  0.41899477  0.61569210    -0.90900
O130        O  0.91106916  0.47984892  0.60542290    -0.84000
C131        C  0.91596686  0.44560694  0.62450401     1.11100
O132        O  0.15857897  0.49479572  0.52805026    -0.97100
Zr133      Zr  0.07743930  0.50777544  0.53817925     1.88900
O134        O  0.98360582  0.56752584  0.59179677    -0.73700
O135        O  0.04257284  0.41010400  0.62806484    -0.53000
O136        O  0.11440587  0.48925009  0.60240459    -0.97700
O137        O  0.11809447  0.56653954  0.50992569    -0.54900
O138        O  0.06033770  0.56400079  0.58374037    -0.74300
C139        C  0.02436391  0.58019075  0.59908162     0.98100
O140        O  0.88377919  0.55488889  0.57339900    -0.63100
O141        O  0.96498096  0.52696979  0.37403048    -0.57900
O142        O  0.90396573  0.56245213  0.50540819    -0.94600
O143        O  0.93881020  0.56967605  0.44347127    -0.93000
O144        O  0.88334256  0.44910766  0.40652211    -0.93300
O145        O  0.84596798  0.43044622  0.47409849    -0.92100
C146        C  0.90729224  0.57802088  0.46937248     1.16900
H147        H  0.98986982  0.44490787  0.39859299     0.32900
H148        H  0.90866595  0.43256269  0.54757949     0.43700
H149        H  0.01395884  0.57065003  0.51318168     0.37200
H150        H  0.09690235  0.42364071  0.53770438     0.33700
H151        H  0.87375783  0.35182418  0.46860031     0.25500
H152        H  0.03769237  0.38207202  0.63880860     0.31500
H153        H  0.09088807  0.49360159  0.62378490     0.37400
H154        H  0.90288306  0.44462344  0.38215481     0.31800
H155        H  0.97752930  0.55245762  0.36204966     0.30700
H156        H  0.02479394  0.60046985  0.41034423     0.32400
H157        H  0.09765442  0.59031676  0.51424807     0.31300
H158        H  0.84240240  0.44556388  0.50025256     0.35300
H159        H  0.85669103  0.53721041  0.56956885     0.28100
H160        H  0.12471535  0.36065638  0.42414174     0.32300
H161        H  0.17453145  0.51414193  0.54654211     0.35200
H162        H  0.97829973  0.50472712  0.35716354     0.27800
H163        H  0.88810208  0.55692031  0.60342500     0.40600
H164        H  0.93362786  0.35015304  0.57039656     0.30700
H165        H  0.92010940  0.34081479  0.48946700     0.38300
H166        H  0.11784289  0.56204992  0.47990246     0.30200
H167        H  0.07538854  0.41104731  0.62096905     0.30200
H168        H  0.15180851  0.39292287  0.45062939     0.30500
C169        C  0.41768410  0.70589094  0.77840706     0.79700
N170        N  0.37157078  0.70609705  0.77480806    -0.78600
C171        C  0.35057172  0.72833221  0.74533965     0.82100
N172        N  0.37620909  0.75086109  0.71901628    -0.78600
C173        C  0.42253162  0.75094717  0.72172924     0.82200
N174        N  0.44343277  0.72818390  0.75147761    -0.80300
C175        C  0.08140345  0.76037899  0.75883951     0.79700
N176        N  0.05983471  0.73376767  0.73295653    -0.78600
C177        C  0.08498463  0.70799314  0.70883057     0.82100
N178        N  0.13119363  0.70826264  0.71193939    -0.78600
C179        C  0.15287126  0.73464074  0.73744922     0.82200
N180        N  0.12772175  0.76064529  0.76079816    -0.80300
Zr181      Zr  0.94956035  0.92371073  0.95097965     2.17500
O182        O  0.88207940  0.88955075  0.92353304    -0.51900
O183        O  0.98297271  0.87834855  0.89883444    -0.75100
O184        O  0.90837135  0.96460702  0.90005121    -0.81900
O185        O  0.95350750  0.85251051  0.04469295    -0.83600
O186        O  0.94240293  0.02706299  0.89532960    -0.79200
O187        O  0.90916668  0.87177510  0.99096121    -0.90900
O188        O  0.05929952  0.88984896  0.89640074    -0.76800
O189        O  0.01168732  0.96235640  0.92401878    -0.86300
O190        O  0.01714783  0.89475057  0.97967711    -0.86000
O191        O  0.93607426  0.99328079  0.97357673    -0.72800
O192        O  0.94244712  0.93203917  0.02388729    -0.84900
Zr193      Zr  0.06034240  0.01323091  0.04851524     2.26400
Zr194      Zr  0.99987656  0.03109500  0.94759790     2.06300
Zr195      Zr  0.01082527  0.90479848  0.05218233     2.10000
Zr196      Zr  0.07884089  0.93419560  0.95359671     1.78800
O197        O  0.97454580  0.89032477  0.11777722    -0.93700
O198        O  0.11596248  0.96441923  0.89394693    -0.41500
O199        O  0.07373677  0.94356815  0.02646508    -0.78100
O200        O  0.06901282  0.00368101  0.97543773    -0.96800
O201        O  0.99250141  0.04099431  0.01995219    -0.90100
O202        O  0.99885608  0.97362081  0.07513003    -0.93000
C203        C  0.02285037  0.87246353  0.88348122     1.00800
C204        C  0.91798506  0.84920954  0.02224256     1.13700
C205        C  0.91174277  0.00099983  0.88536131     1.04500
O206        O  0.03310561  0.04863545  0.88143785    -0.95100
O207        O  0.05365204  0.08592965  0.95673590    -0.90900
O208        O  0.09097485  0.07566361  0.01667979    -0.84000
C209        C  0.08371213  0.09571986  0.98332856     1.11100
O210        O  0.85003198  0.98772432  0.03769255    -0.97100
Zr211      Zr  0.93123575  0.00109434  0.04625908     1.88900
O212        O  0.02587102  0.05927090  0.10005601    -0.73700
O213        O  0.95754833  0.09522952  0.95149801    -0.53000
O214        O  0.89024472  0.06384814  0.02953108    -0.97700
O215        O  0.89596694  0.97096944  0.10688593    -0.54900
O216        O  0.94935560  0.04806833  0.10115987    -0.74300
C217        C  0.98544525  0.06580111  0.11424660     0.98100
O218        O  0.13641494  0.03083943  0.07315571    -0.63100
O219        O  0.05309009  0.84050781  0.05130382    -0.57900
O220        O  0.09598141  0.97531865  0.10457549    -0.94600
O221        O  0.06638696  0.91099422  0.10592113    -0.93000
O222        O  0.11906407  0.87164656  0.97234015    -0.93300
O223        O  0.16086548  0.94359977  0.96046938    -0.92100
C224        C  0.09277857  0.93900078  0.11967491     1.16900
H225        H  0.02018890  0.86603100  0.97312717     0.32900
H226        H  0.09540458  0.01813138  0.96524901     0.43700
H227        H  0.99804693  0.97485852  0.10472314     0.37200
H228        H  0.90750460  0.00403753  0.96365793     0.33700
H229        H  0.13312280  0.94160094  0.88110339     0.25500
H230        H  0.96155567  0.10792573  0.92418453     0.31500
H231        H  0.91275882  0.08613409  0.03338767     0.37400
H232        H  0.11816894  0.85418757  0.94750836     0.31800
H233        H  0.08556559  0.84875012  0.05052244     0.30700
H234        H  0.98028191  0.86084099  0.12274399     0.32400
H235        H  0.91638503  0.97800636  0.12998573     0.31300
H236        H  0.16433488  0.96159726  0.98474071     0.35300
H237        H  0.15581705  0.03301488  0.04838140     0.28100
H238        H  0.88595931  0.88914139  0.89337559     0.32300
H239        H  0.83446432  0.00578213  0.05774091     0.35200
H240        H  0.04870135  0.82894547  0.07907811     0.27800
H241        H  0.13402352  0.05914336  0.08397765     0.40600
H242        H  0.06638231  0.04517777  0.88514169     0.30700
H243        H  0.09083166  0.97004977  0.87452356     0.38300
H244        H  0.89978466  0.94103232  0.10322894     0.30200
H245        H  0.92508813  0.08699361  0.95230811     0.30200
H246        H  0.85625298  0.90846446  0.92867908     0.30500
C247        C  0.22372935  0.24124231  0.60407211     0.79700
N248        N  0.22219017  0.23862039  0.64570453    -0.78600
C249        C  0.25490720  0.21760680  0.66655336     0.82100
N250        N  0.28863984  0.19861566  0.64506942    -0.78600
C251        C  0.29010556  0.20098337  0.60353510     0.82200
N252        N  0.25740471  0.22192122  0.58321293    -0.80300
C253        C  0.28127741  0.24229159  0.90530600     0.79700
N254        N  0.24889806  0.22318617  0.92794160    -0.78600
C255        C  0.21553979  0.20129712  0.90939981     0.82100
N256        N  0.21411583  0.19897707  0.86777348    -0.78600
C257        C  0.24623887  0.21824529  0.84472513     0.82200
N258        N  0.27976907  0.23975132  0.86381283    -0.80300
Zr259      Zr  0.44490905  0.42731278  0.04872310     2.17500
O260        O  0.38144880  0.39984271  0.08845095    -0.51900
O261        O  0.48232830  0.37785565  0.09450043    -0.75100
O262        O  0.40611981  0.37196237  0.01173172    -0.81900
O263        O  0.43910156  0.52809321  0.10885507    -0.83600
O264        O  0.44079039  0.36388988  0.95010354    -0.79200
O265        O  0.40326328  0.46688359  0.10066010    -0.90900
O266        O  0.55841494  0.37872263  0.08210885    -0.76800
O267        O  0.50722525  0.40099686  0.00982073    -0.86300
O268        O  0.51147249  0.46026688  0.07471813    -0.86000
O269        O  0.42831037  0.44570231  0.97840276    -0.72800
O270        O  0.43414542  0.49911418  0.03589938    -0.84900
Zr271      Zr  0.54961525  0.52389867  0.95249543     2.26400
Zr272      Zr  0.49223892  0.42043388  0.94020936     2.06300
Zr273      Zr  0.50119586  0.53163590  0.06087128     2.10000
Zr274      Zr  0.57348923  0.43448435  0.03534352     1.78800
O275        O  0.46993756  0.59995291  0.07218250    -0.93700
O276        O  0.61268519  0.37558739  0.00568304    -0.41500
O277        O  0.56511126  0.50648276  0.02289390    -0.78100
O278        O  0.56048946  0.45176910  0.96539725    -0.96800
O279        O  0.48254855  0.49180431  0.92680369    -0.90100
O280        O  0.48738085  0.55093516  0.99119915    -0.93000
C281        C  0.52308970  0.36454421  0.10035301     1.00800
C282        C  0.40739967  0.50248352  0.11722948     1.13700
C283        C  0.41092923  0.35384390  0.97695239     1.04500
O284        O  0.52467325  0.35535439  0.91803195    -0.95100
O285        O  0.54680156  0.42796946  0.88509422    -0.90900
O286        O  0.58191805  0.48948531  0.89237208    -0.84000
C287        C  0.57625829  0.45481267  0.87415736     1.11100
O288        O  0.33913028  0.50498256  0.97346116    -0.97100
Zr289      Zr  0.42067300  0.51789835  0.96615065     1.88900
O290        O  0.51327452  0.57345288  0.90630837    -0.73700
O291        O  0.44214123  0.42372987  0.88080358    -0.53000
O292        O  0.38184476  0.49995834  0.90260108    -0.97700
O293        O  0.37990581  0.57362314  0.00012886    -0.54900
O294        O  0.43710743  0.57364512  0.91903432    -0.74300
C295        C  0.47261017  0.58692998  0.90017893     0.98100
O296        O  0.62199895  0.54406356  0.92153102    -0.63100
O297        O  0.53826540  0.53179094  0.12769849    -0.57900
O298        O  0.58804517  0.57964070  0.98944379    -0.94600
O299        O  0.55992531  0.58211810  0.05420428    -0.93000
O300        O  0.61396162  0.45379898  0.09758412    -0.93300
O301        O  0.65433279  0.44616760  0.02263384    -0.92100
C302        C  0.58659697  0.59467852  0.02593245     1.16900
H303        H  0.51536724  0.45527494  0.10371896     0.32900
H304        H  0.58710767  0.44147758  0.95131299     0.43700
H305        H  0.48547531  0.58039736  0.98875163     0.37200
H306        H  0.40017615  0.43355758  0.96893651     0.33700
H307        H  0.63024343  0.36359199  0.02862821     0.25500
H308        H  0.45961623  0.43904634  0.85983828     0.31500
H309        H  0.40491029  0.50385398  0.88076246     0.37400
H310        H  0.62403903  0.48235636  0.09277111     0.31800
H311        H  0.57113507  0.53523512  0.12171108     0.30700
H312        H  0.47095218  0.60416289  0.10223295     0.32400
H313        H  0.39820818  0.59846830  0.99444741     0.31300
H314        H  0.65512690  0.46481326  0.99871906     0.35300
H315        H  0.61934460  0.57376262  0.91577215     0.28100
H316        H  0.38603605  0.36978625  0.08923323     0.32300
H317        H  0.32371806  0.52700120  0.95785168     0.35200
H318        H  0.52902902  0.55808798  0.14043548     0.27800
H319        H  0.64509245  0.54181397  0.94353256     0.40600
H320        H  0.55634690  0.35566966  0.92846485     0.30700
H321        H  0.58823613  0.35538548  0.00026877     0.38300
H322        H  0.38411734  0.56861239  0.02980598     0.30200
H323        H  0.44109446  0.39527892  0.87023051     0.30200
H324        H  0.35399557  0.40416463  0.07138029     0.30500
C325        C  0.73304048  0.75047223  0.39851808     0.79700
N326        N  0.75830757  0.72266161  0.41941732    -0.78600
C327        C  0.78244981  0.69364174  0.39887625     0.82100
N328        N  0.78024864  0.69201852  0.35727462    -0.78600
C329        C  0.75450673  0.71929334  0.33611192     0.82200
N330        N  0.73121787  0.74860072  0.35697946    -0.80300
C331        C  0.72454649  0.69775925  0.09553578     0.79700
N332        N  0.75621652  0.72023753  0.07528209    -0.78600
C333        C  0.78677311  0.74297660  0.09654200     0.82100
N334        N  0.78543102  0.74368575  0.13808846    -0.78600
C335        C  0.75376421  0.72142550  0.15863314     0.82200
N336        N  0.72334991  0.69848142  0.13722174    -0.80300
C337        C  0.75066871  0.68398415  0.22455058    -0.20800
C338        C  0.75277165  0.72163834  0.20394827    -0.07400
C339        C  0.75406982  0.75841911  0.22690195     0.13500
C340        C  0.75382786  0.75646762  0.26987255    -0.20900
C341        C  0.75344498  0.71875826  0.29062865    -0.07400
C342        C  0.75164150  0.68195937  0.26756090     0.13500
C343        C  0.74979246  0.64048901  0.28781882    -0.24200
H344        H  0.74938227  0.65588566  0.20679183     0.14700
H345        H  0.75505229  0.78467708  0.28738492     0.14800
C346        C  0.75465421  0.79983799  0.20640713    -0.24200
H347        H  0.74530902  0.61544266  0.26507103     0.05000
H348        H  0.72066173  0.63925752  0.30956381     0.08200
H349        H  0.78210924  0.63446931  0.30437405     0.08200
H350        H  0.72506891  0.80265223  0.18539524     0.08200
H351        H  0.78676880  0.80385606  0.18886198     0.08200
H352        H  0.75262915  0.82520847  0.22909504     0.05000
C353        C  0.64390253  0.68053678  0.08469047    -0.20800
C354        C  0.68931197  0.67507094  0.07271753    -0.07400
C355        C  0.69984829  0.64735906  0.04070791     0.13500
C356        C  0.66480308  0.62350304  0.02359249    -0.20900
C357        C  0.61973849  0.62670733  0.03788213    -0.07400
C358        C  0.60887721  0.65704480  0.06756033     0.13500
C359        C  0.56063354  0.66501351  0.08163361    -0.24200
H360        H  0.63592212  0.70281145  0.10836140     0.14700
H361        H  0.67313891  0.60055411  0.00070504     0.14800
C362        C  0.74814580  0.64107161  0.02618797    -0.24200
H363        H  0.55827356  0.69314821  0.10075704     0.05000
H364        H  0.54823819  0.63927741  0.10075807     0.08200
H365        H  0.53804694  0.66925793  0.05468335     0.08200
H366        H  0.77003728  0.63185329  0.05234135     0.08200
H367        H  0.76143205  0.66984839  0.01258474     0.08200
H368        H  0.75038490  0.61676857  0.00237578     0.05000
C369        C  0.30211193  0.29298587  0.95821916    -0.20800
C370        C  0.31614550  0.26752171  0.92592892    -0.07400
C371        C  0.36253233  0.26689352  0.91431904     0.13500
C372        C  0.39320526  0.29313827  0.93417280    -0.20900
C373        C  0.37873710  0.32084685  0.96468579    -0.07400
C374        C  0.33254453  0.31986642  0.97760209     0.13500
C375        C  0.31419093  0.34778761  0.01051362    -0.24200
H376        H  0.26653804  0.29295502  0.96733002     0.14700
H377        H  0.42861153  0.29309951  0.92456610     0.14800
C378        C  0.38014163  0.23863037  0.88127867    -0.24200
H379        H  0.27700298  0.34349299  0.01539212     0.05000
H380        H  0.31971712  0.38031816  0.00188675     0.08200
H381        H  0.33136135  0.34076902  0.03991601     0.08200
H382        H  0.36558908  0.24741394  0.85120855     0.08200
H383        H  0.37081596  0.20646520  0.88854281     0.08200
H384        H  0.41784655  0.24023141  0.87838951     0.05000
C385        C  0.21046826  0.21622136  0.73194772    -0.20800
C386        C  0.25322261  0.21521295  0.71225880    -0.07400
C387        C  0.29309903  0.21357093  0.73678162     0.13500
C388        C  0.28908033  0.21319521  0.77960266    -0.20900
C389        C  0.24657065  0.21502324  0.79923654    -0.07400
C390        C  0.20657156  0.21620428  0.77500515     0.13500
C391        C  0.15983639  0.21927622  0.79406219    -0.24200
H392        H  0.17978569  0.21740273  0.71350758     0.14700
H393        H  0.31973357  0.21197901  0.79805658     0.14800
C394        C  0.34033668  0.21445354  0.71865706    -0.24200
H395        H  0.13274530  0.22227541  0.77049847     0.05000
H396        H  0.15806016  0.24664346  0.81429612     0.08200
H397        H  0.15239982  0.19126660  0.81211924     0.08200
H398        H  0.34406467  0.24204564  0.69907964     0.08200
H399        H  0.34660646  0.18612661  0.70066105     0.08200
H400        H  0.36714802  0.21600988  0.74262733     0.05000
C401        C  0.86001592  0.75313409  0.06094496    -0.20800
C402        C  0.81859603  0.76961613  0.07467547    -0.07400
C403        C  0.80876918  0.81149465  0.06840665     0.13500
C404        C  0.84104391  0.83612519  0.04866990    -0.20900
C405        C  0.88314902  0.82008501  0.03611039    -0.07400
C406        C  0.89284943  0.77812395  0.04212258     0.13500
C407        C  0.93758310  0.75976930  0.02861501    -0.24200
H408        H  0.86708623  0.72089928  0.06592189     0.14700
H409        H  0.83411153  0.86855075  0.04472421     0.14800
C410        C  0.76508711  0.83132448  0.08280945    -0.24200
H411        H  0.93881902  0.72624911  0.03443737     0.05000
H412        H  0.96617196  0.77414432  0.04561277     0.08200
H413        H  0.94241948  0.76484287  0.99523743     0.08200
H414        H  0.77312485  0.85592644  0.10523194     0.08200
H415        H  0.74132720  0.80954324  0.09775202     0.08200
H416        H  0.74714592  0.84506716  0.05622385     0.05000
C417        C  0.13547149  0.18595332  0.92673858    -0.20800
C418        C  0.18176767  0.17909053  0.93428366    -0.07400
C419        C  0.19497079  0.14941370  0.96343690     0.13500
C420        C  0.16141843  0.12517517  0.98218292    -0.20900
C421        C  0.11514687  0.12943747  0.97194127    -0.07400
C422        C  0.10184734  0.16168880  0.94529882     0.13500
C423        C  0.05253046  0.17056866  0.93564266    -0.24200
H424        H  0.12569205  0.20953405  0.90506191     0.14700
H425        H  0.17182411  0.10072632  0.00258848     0.14800
C426        C  0.24448810  0.14114171  0.97267509    -0.24200
H427        H  0.04863575  0.20000599  0.91893465     0.05000
H428        H  0.03253613  0.17283963  0.96449175     0.08200
H429        H  0.03818587  0.14624121  0.91571874     0.08200
H430        H  0.26039542  0.16876866  0.98644105     0.08200
H431        H  0.26279799  0.13286118  0.94400610     0.08200
H432        H  0.24867690  0.11548961  0.99469911     0.05000
C433        C  0.04273901  0.85822607  0.81070311    -0.20800
C434        C  0.02811999  0.84326158  0.84885224    -0.07400
C435        C  0.02422674  0.80044996  0.85456689     0.13500
C436        C  0.03832635  0.77359419  0.82310441    -0.20900
C437        C  0.05577901  0.78864088  0.78599814    -0.07400
C438        C  0.05604132  0.83137540  0.77903780     0.13500
C439        C  0.07094222  0.84857034  0.73834228    -0.24200
H440        H  0.04510378  0.89106883  0.80614261     0.14700
H441        H  0.03824569  0.74079759  0.82839089     0.14800
C442        C  0.00772036  0.78311539  0.89468215    -0.24200
H443        H  0.06825479  0.88252876  0.73766578     0.05000
H444        H  0.04893495  0.83601491  0.71365287     0.08200
H445        H  0.10690143  0.84011587  0.73204585     0.08200
H446        H  0.97245651  0.79388825  0.90086228     0.08200
H447        H  0.03039773  0.79332836  0.91993956     0.08200
H448        H  0.00740335  0.74906777  0.89430187     0.05000
C449        C  0.46904031  0.64874222  0.80034175    -0.20800
C450        C  0.43844180  0.68013625  0.81110180    -0.07400
C451        C  0.42319620  0.68287278  0.85224439     0.13500
C452        C  0.43673820  0.65305689  0.88080118    -0.20900
C453        C  0.46525822  0.62031460  0.86966821    -0.07400
C454        C  0.48240420  0.61861823  0.82902417     0.13500
C455        C  0.51234753  0.58375204  0.81503817    -0.24200
H456        H  0.48043726  0.64640475  0.76880079     0.14700
H457        H  0.42400697  0.65474408  0.91198316     0.14800
C458        C  0.39261348  0.71731616  0.86637492    -0.24200
H459        H  0.52102611  0.58623448  0.78197704     0.05000
H460        H  0.49448147  0.55412786  0.81984183     0.08200
H461        H  0.54472696  0.58385778  0.83259153     0.08200
H462        H  0.35885011  0.71524900  0.85128141     0.08200
H463        H  0.40864618  0.74724341  0.85899282     0.08200
H464        H  0.38667442  0.71628817  0.89999663     0.05000
C465        C  0.22570396  0.69589223  0.74111808    -0.20800
C466        C  0.20349783  0.73404555  0.74006026    -0.07400
C467        C  0.23010020  0.77028222  0.74004704     0.13500
C468        C  0.27796261  0.76732795  0.74098268    -0.20900
C469        C  0.30003300  0.72921206  0.74300608    -0.07400
C470        C  0.27348690  0.69298184  0.74316717     0.13500
C471        C  0.29526844  0.65112439  0.74432162    -0.24200
H472        H  0.20543428  0.66810527  0.74087920     0.14700
H473        H  0.29835429  0.79504110  0.74084605     0.14800
C474        C  0.20849327  0.81212525  0.73777275    -0.24200
H475        H  0.26952921  0.62627824  0.74177817     0.05000
H476        H  0.31356067  0.64678532  0.77373648     0.08200
H477        H  0.31957907  0.64780601  0.71839792     0.08200
H478        H  0.18780789  0.81795357  0.76568397     0.08200
H479        H  0.18652859  0.81410503  0.71015748     0.08200
H480        H  0.23448294  0.83680296  0.73575779     0.05000
C481        C  0.16585956  0.31774261  0.53358569    -0.20800
C482        C  0.11994104  0.31245704  0.54459149    -0.07400
C483        C  0.10810466  0.28070372  0.57225579     0.13500
C484        C  0.14277576  0.25753936  0.59067713    -0.20900
C485        C  0.18876700  0.26460955  0.58151203    -0.07400
C486        C  0.20045662  0.29418865  0.55160573     0.13500
C487        C  0.24939464  0.30272120  0.54015811    -0.24200
H488        H  0.17503084  0.34194913  0.51239706     0.14700
H489        H  0.13398584  0.23394132  0.61268255     0.14800
C490        C  0.05913428  0.27050898  0.58206600    -0.24200
H491        H  0.25226752  0.32853154  0.51813739     0.05000
H492        H  0.26468490  0.27532287  0.52535241     0.08200
H493        H  0.26920574  0.31088533  0.56797949     0.08200
H494        H  0.03988873  0.26546558  0.55320216     0.08200
H495        H  0.04311194  0.29556650  0.59998665     0.08200
H496        H  0.05639575  0.24215439  0.60071840     0.05000
C497        C  0.87056131  0.64638647  0.47028935    -0.20800
C498        C  0.87147012  0.60612332  0.45541155    -0.07400
C499        C  0.84073381  0.59398171  0.42449471     0.13500
C500        C  0.81120236  0.62305786  0.40751711    -0.20900
C501        C  0.81125874  0.66388657  0.42110153    -0.07400
C502        C  0.84069358  0.67558837  0.45352961     0.13500
C503        C  0.84260572  0.71906546  0.46916491    -0.24200
H504        H  0.89442827  0.65531201  0.49402948     0.14700
H505        H  0.78818040  0.61394297  0.38318228     0.14800
C506        C  0.83899581  0.55024529  0.40955044    -0.24200
H507        H  0.86943768  0.72304925  0.49283249     0.05000
H508        H  0.80952522  0.72752299  0.48340560     0.08200
H509        H  0.85031796  0.74030581  0.44350858     0.08200
H510        H  0.83145262  0.52952843  0.43567913     0.08200
H511        H  0.87217467  0.54148663  0.39571096     0.08200
H512        H  0.81213215  0.54577002  0.38600097     0.05000
C513        C  0.02788910  0.65349391  0.69090491    -0.20800
C514        C  0.06335553  0.67983027  0.67861342    -0.07400
C515        C  0.08051470  0.67657052  0.63812517     0.13500
C516        C  0.06461384  0.64526104  0.61240115    -0.20900
C517        C  0.03198019  0.61673429  0.62564587    -0.07400
C518        C  0.01201915  0.62184706  0.66487263     0.13500
C519        C  0.97591822  0.59283273  0.68014765    -0.24200
H520        H  0.01425072  0.65630357  0.72167751     0.14700
H521        H  0.07905549  0.64211158  0.58193027     0.14800
C522        C  0.11565438  0.70603831  0.62152822    -0.24200
H523        H  0.96507229  0.60043447  0.71190128     0.05000
H524        H  0.98925947  0.56097342  0.68001483     0.08200
H525        H  0.94543220  0.59464757  0.66010821     0.08200
H526        H  0.14882373  0.70163835  0.63716584     0.08200
H527        H  0.10375516  0.73806484  0.62592173     0.08200
H528        H  0.12169773  0.70128815  0.58823192     0.05000
C529        C  0.96061419  0.08258669  0.18516421    -0.20800
C530        C  0.97849106  0.09621237  0.14760466    -0.07400
C531        C  0.98174742  0.13880673  0.14029438     0.13500
C532        C  0.96565704  0.16669587  0.17008452    -0.20900
C533        C  0.94580057  0.15296507  0.20677971    -0.07400
C534        C  0.94440416  0.11042814  0.21485157     0.13500
C535        C  0.92541536  0.09439031  0.25463287    -0.24200
H536        H  0.95777067  0.04991027  0.19062530     0.14700
H537        H  0.96625417  0.19929544  0.16373156     0.14800
C538        C  0.99952791  0.15473968  0.10002612    -0.24200
H539        H  0.92775382  0.06045260  0.25642608     0.05000
H540        H  0.88903706  0.10306818  0.25771456     0.08200
H541        H  0.94489143  0.10753926  0.28068595     0.08200
H542        H  0.97818174  0.14295915  0.07449880     0.08200
H543        H  0.03526902  0.14445484  0.09548910     0.08200
H544        H  0.99893358  0.18876258  0.09888846     0.05000
C545        C  0.97499486  0.26007257  0.33332296    -0.20800
C546        C  0.94412569  0.27209064  0.30261234    -0.07400
C547        C  0.93172111  0.31393800  0.29974717     0.13500
C548        C  0.94724525  0.34181068  0.32939217    -0.20900
C549        C  0.97507929  0.32932968  0.36197711    -0.07400
C550        C  0.99036274  0.28820912  0.36330109     0.13500
C551        C  0.02026563  0.27341551  0.39770545    -0.24200
H552        H  0.98477079  0.22810400  0.33544509     0.14700
H553        H  0.93614641  0.37349463  0.32801154     0.14800
C554        C  0.90190565  0.32957100  0.26553706    -0.24200
H555        H  0.02816825  0.24024255  0.39471242     0.05000
H556        H  0.00277233  0.27831564  0.42753448     0.08200
H557        H  0.05296991  0.29053280  0.39754418     0.08200
H558        H  0.86695862  0.31710644  0.26850655     0.08200
H559        H  0.91661003  0.32050288  0.23547336     0.08200
H560        H  0.89903590  0.36352052  0.26608419     0.05000
C561        C  0.52929437  0.30060952  0.19845079    -0.20800
C562        C  0.56199570  0.27114567  0.18708212    -0.07400
C563        C  0.57635576  0.26926091  0.14564615     0.13500
C564        C  0.56096284  0.29892490  0.11775476    -0.20900
C565        C  0.53108196  0.33037983  0.12975028    -0.07400
C566        C  0.51376014  0.33038252  0.17030886     0.13500
C567        C  0.48125503  0.36315517  0.18473510    -0.24200
H568        H  0.51790725  0.30186554  0.23005075     0.14700
H569        H  0.57343497  0.29827287  0.08644703     0.14800
C570        C  0.60770688  0.23583661  0.13040932    -0.24200
H571        H  0.47240656  0.35944906  0.21763704     0.05000
H572        H  0.44914086  0.36156670  0.16684110     0.08200
H573        H  0.49699551  0.39384979  0.18072364     0.08200
H574        H  0.59314379  0.20539151  0.13814470     0.08200
H575        H  0.64198837  0.23891879  0.14432394     0.08200
H576        H  0.61222527  0.23713587  0.09662133     0.05000
C577        C  0.77941598  0.25251017  0.24862332    -0.20800
C578        C  0.80040237  0.21391401  0.25238066    -0.07400
C579        C  0.77253169  0.17862758  0.25552313     0.13500
C580        C  0.72480032  0.18288172  0.25467354    -0.20900
C581        C  0.70396590  0.22135048  0.25002263    -0.07400
C582        C  0.73169646  0.25667453  0.24704983     0.13500
C583        C  0.71125060  0.29893895  0.24358873    -0.24200
H584        H  0.80052343  0.27963953  0.24639034     0.14700
H585        H  0.70349920  0.15585074  0.25726715     0.14800
C586        C  0.79265958  0.13653319  0.26113125    -0.24200
H587        H  0.73783503  0.32317929  0.24406905     0.05000
H588        H  0.68769034  0.30457150  0.26968409     0.08200
H589        H  0.69236219  0.30184159  0.21429602     0.08200
H590        H  0.81514494  0.13627158  0.28848630     0.08200
H591        H  0.81246217  0.12774288  0.23348803     0.08200
H592        H  0.76585478  0.11292075  0.26567677     0.05000
C593        C  0.82658995  0.01864178  0.79942847    -0.20800
C594        C  0.80671314  0.05564237  0.81282382    -0.07400
C595        C  0.81962963  0.07230944  0.85121347     0.13500
C596        C  0.85332840  0.05267598  0.87400126    -0.20900
C597        C  0.87466098  0.01698020  0.85981225    -0.07400
C598        C  0.86076553  0.99913617  0.82253857     0.13500
C599        C  0.88317923  0.96083026  0.80646610    -0.24200
H600        H  0.81648544  0.00572975  0.77018826     0.14700
H601        H  0.86351578  0.06555325  0.90325911     0.14800
C602        C  0.79770794  0.11022840  0.86917126    -0.24200
H603        H  0.86905329  0.95163379  0.77624878     0.05000
H604        H  0.87761599  0.93519774  0.82821633     0.08200
H605        H  0.92036713  0.96609694  0.80275936     0.08200
H606        H  0.76006138  0.10664684  0.86960102     0.08200
H607        H  0.80731531  0.13769825  0.85114691     0.08200
H608        H  0.80897387  0.11590213  0.90118344     0.05000
C609        C  0.63505773  0.39420011  0.78979663    -0.20800
C610        C  0.68039023  0.40646193  0.79559208    -0.07400
C611        C  0.68989609  0.43987721  0.82185254     0.13500
C612        C  0.65426888  0.45739192  0.84474643    -0.20900
C613        C  0.60931306  0.44265308  0.84176024    -0.07400
C614        C  0.59924525  0.41228255  0.81192837     0.13500
C615        C  0.55107539  0.39884871  0.80278750    -0.24200
H616        H  0.62774792  0.36959636  0.76840086     0.14700
H617        H  0.66223439  0.48105682  0.86695896     0.14800
C618        C  0.73774137  0.45566442  0.82776448    -0.24200
H619        H  0.54961091  0.37879484  0.77526190     0.05000
H620        H  0.52944503  0.42611468  0.79672017     0.08200
H621        H  0.53676352  0.38101189  0.82866374     0.08200
H622        H  0.75093751  0.46812760  0.79842065     0.08200
H623        H  0.76025685  0.43049642  0.83843806     0.08200
H624        H  0.73909817  0.48071617  0.85083828     0.05000
C625        C  0.80577639  0.42827132  0.68448348    -0.20800
C626        C  0.81963567  0.39767476  0.71186530    -0.07400
C627        C  0.86603735  0.38623219  0.71332734     0.13500
C628        C  0.89701777  0.40473070  0.68630638    -0.20900
C629        C  0.88288089  0.43379338  0.65708845    -0.07400
C630        C  0.83645796  0.44610821  0.65671341     0.13500
C631        C  0.81808261  0.47653450  0.62628599    -0.24200
H632        H  0.77011702  0.43701914  0.68359656     0.14700
H633        H  0.93246295  0.39533443  0.68715960     0.14800
C634        C  0.88331554  0.35485695  0.74341786    -0.24200
H635        H  0.78064075  0.48071687  0.62937235     0.05000
H636        H  0.82495696  0.46585851  0.59452596     0.08200
H637        H  0.83412973  0.50676723  0.63182087     0.08200
H638        H  0.86866012  0.32435057  0.73634464     0.08200
H639        H  0.87382340  0.36404804  0.77508732     0.08200
H640        H  0.92101437  0.35178924  0.74208686     0.05000
C641        C  0.78657789  0.24933919  0.75705387    -0.20800
C642        C  0.74549475  0.27134793  0.76035644    -0.07400
C643        C  0.70386311  0.24916104  0.76234957     0.13500
C644        C  0.70474496  0.20605945  0.76126482    -0.20900
C645        C  0.74588633  0.18432302  0.75869072    -0.07400
C646        C  0.78739604  0.20633063  0.75615641     0.13500
C647        C  0.83266253  0.18491017  0.75087943    -0.24200
H648        H  0.81852685  0.26589295  0.75529779     0.14700
H649        H  0.67302010  0.18911612  0.76313927     0.14800
C650        C  0.65814263  0.27022540  0.76448949    -0.24200
H651        H  0.86089746  0.20702602  0.74580539     0.05000
H652        H  0.83129780  0.16414642  0.72389419     0.08200
H653        H  0.84114391  0.16708567  0.77875892     0.08200
H654        H  0.65433634  0.29155602  0.73822573     0.08200
H655        H  0.65484650  0.28723743  0.79383050     0.08200
H656        H  0.62951712  0.24798211  0.76313247     0.05000
C657        C  0.40149071  0.15842684  0.56298606    -0.20800
C658        C  0.38572310  0.12499270  0.53974859    -0.07400
C659        C  0.33816207  0.11916154  0.53489163     0.13500
C660        C  0.30791185  0.14569351  0.55498247    -0.20900
C661        C  0.32387891  0.17728709  0.58020017    -0.07400
C662        C  0.37106987  0.18480535  0.58311750     0.13500
C663        C  0.38935976  0.22073748  0.60693776    -0.24200
H664        H  0.43788207  0.16320058  0.56637766     0.14700
H665        H  0.27146280  0.14072488  0.55241771     0.14800
C666        C  0.31877149  0.08389920  0.51066637    -0.24200
H667        H  0.42706471  0.22299576  0.60455603     0.05000
H668        H  0.38058016  0.21739747  0.63969471     0.08200
H669        H  0.37441879  0.24961441  0.59498567     0.08200
H670        H  0.33158183  0.05435788  0.52299066     0.08200
H671        H  0.32856721  0.08713615  0.47802532     0.08200
H672        H  0.28093194  0.08315079  0.51204260     0.05000
C673        C  0.67478099  0.85010089  0.42646758    -0.20800
C674        C  0.64511406  0.83696522  0.45740958    -0.07400
C675        C  0.64762862  0.79643587  0.47206245     0.13500
C676        C  0.67844294  0.76907753  0.45357678    -0.20900
C677        C  0.70614513  0.78157768  0.42068869    -0.07400
C678        C  0.70574533  0.82305120  0.40821040     0.13500
C679        C  0.73832337  0.83924236  0.37631214    -0.24200
H680        H  0.67289711  0.88156834  0.41589950     0.14700
H681        H  0.67934449  0.73738620  0.46348332     0.14800
C682        C  0.61632319  0.78165806  0.50556595    -0.24200
H683        H  0.73563954  0.87305134  0.37307493     0.05000
H684        H  0.73071102  0.82563610  0.34596962     0.08200
H685        H  0.77391899  0.83187638  0.38524208     0.08200
H686        H  0.58025632  0.78512589  0.49583124     0.08200
H687        H  0.62207252  0.79991082  0.53384223     0.08200
H688        H  0.62235934  0.74887814  0.51294179     0.05000
C689        C  0.51883202  0.11771244  0.33185723    -0.20800
C690        C  0.53356295  0.12389389  0.37240513    -0.07400
C691        C  0.55762641  0.16020167  0.38216934     0.13500
C692        C  0.56957061  0.18755742  0.35073199    -0.20900
C693        C  0.55828357  0.17963843  0.30969436    -0.07400
C694        C  0.53138431  0.14496023  0.30026143     0.13500
C695        C  0.51873072  0.13512995  0.25662757    -0.24200
H696        H  0.50015565  0.09002568  0.32438890     0.14700
H697        H  0.58999413  0.21432020  0.35791596     0.14800
C698        C  0.57124836  0.17009165  0.42562192    -0.24200
H699        H  0.49864791  0.10634493  0.25446844     0.05000
H700        H  0.55007747  0.13134822  0.23785254     0.08200
H701        H  0.49783288  0.16038832  0.24377617     0.08200
H702        H  0.59634934  0.14737954  0.43690115     0.08200
H703        H  0.54064737  0.16982871  0.44570978     0.08200
H704        H  0.58726935  0.20085647  0.42798309     0.05000
C705        C  0.48957720  0.83769906  0.67134781    -0.20800
C706        C  0.48094734  0.82977400  0.62968212    -0.07400
C707        C  0.45946127  0.79248991  0.61876943     0.13500
C708        C  0.44337256  0.76607339  0.64961558    -0.20900
C709        C  0.44886942  0.77540974  0.69131549    -0.07400
C710        C  0.47362578  0.81098178  0.70231010     0.13500
C711        C  0.48064627  0.82208608  0.74664906    -0.24200
H712        H  0.50620208  0.86614111  0.67982187     0.14700
H713        H  0.42485894  0.73858009  0.64113872     0.14800
C714        C  0.45326082  0.78052761  0.57449583    -0.24200
H715        H  0.50008091  0.85111559  0.75001243     0.05000
H716        H  0.50003101  0.79739213  0.76222012     0.08200
H717        H  0.44711189  0.82599804  0.76202196     0.08200
H718        H  0.48686318  0.78036627  0.55873879     0.08200
H719        H  0.43018907  0.80244150  0.55901872     0.08200
H720        H  0.43811245  0.74947275  0.57141895     0.05000
C721        C  0.60389941  0.04020907  0.68707201    -0.20800
C722        C  0.62106560  0.01108723  0.65903783    -0.07400
C723        C  0.66811894  0.00084467  0.66088226     0.13500
C724        C  0.69640916  0.02121568  0.68909632    -0.20900
C725        C  0.67950739  0.05238282  0.71455267    -0.07400
C726        C  0.63246469  0.06128370  0.71430611     0.13500
C727        C  0.61203788  0.09272043  0.74287834    -0.24200
H728        H  0.56792623  0.04782449  0.68667324     0.14700
H729        H  0.73253993  0.01418665  0.68990862     0.14800
C730        C  0.68964187  0.97012411  0.63230998    -0.24200
H731        H  0.57432461  0.09409735  0.74007920     0.05000
H732        H  0.62548441  0.12364400  0.73564644     0.08200
H733        H  0.62040329  0.08481025  0.77509236     0.08200
H734        H  0.68478060  0.97984675  0.60000901     0.08200
H735        H  0.67418560  0.93956527  0.63750238     0.08200
H736        H  0.72690447  0.96708952  0.63759353     0.05000
C737        C  0.16821271  0.94160285  0.15371004    -0.20800
C738        C  0.12296318  0.92756746  0.15412530    -0.07400
C739        C  0.10878879  0.90022965  0.18544415     0.13500
C740        C  0.14090057  0.88566738  0.21355812    -0.20900
C741        C  0.18664077  0.89758546  0.21136827    -0.07400
C742        C  0.20039145  0.92674985  0.18182347     0.13500
C743        C  0.24931629  0.94040072  0.17810938    -0.24200
H744        H  0.17906190  0.96260070  0.12989500     0.14700
H745        H  0.13053297  0.86379030  0.23677492     0.14800
C746        C  0.06008736  0.88599898  0.18966874    -0.24200
H747        H  0.25428607  0.96175834  0.15199753     0.05000
H748        H  0.27170713  0.91339214  0.17307842     0.08200
H749        H  0.25986266  0.95664955  0.20645797     0.08200
H750        H  0.05112635  0.86534869  0.16391434     0.08200
H751        H  0.03679520  0.91283329  0.19030105     0.08200
H752        H  0.05466138  0.86841877  0.21840640     0.05000
C753        C  0.36253262  0.89074085  0.29612660    -0.20800
C754        C  0.31690241  0.89893724  0.30549614    -0.07400
C755        C  0.30593619  0.92687124  0.33704882     0.13500
C756        C  0.34121553  0.94402055  0.36039952    -0.20900
C757        C  0.38707953  0.93420655  0.35251411    -0.07400
C758        C  0.39793033  0.90848308  0.31876624     0.13500
C759        C  0.44644408  0.90012723  0.30568037    -0.24200
H760        H  0.37043895  0.87000685  0.27107880     0.14700
H761        H  0.33276352  0.96386741  0.38599743     0.14800
C762        C  0.25714750  0.93726736  0.34725644    -0.24200
H763        H  0.44789245  0.88300799  0.27623778     0.05000
H764        H  0.46428538  0.88119815  0.32884866     0.08200
H765        H  0.46479092  0.92956314  0.30125517     0.08200
H766        H  0.23813211  0.90890578  0.35507681     0.08200
H767        H  0.24075833  0.95231195  0.32058132     0.08200
H768        H  0.25475306  0.95859413  0.37376062     0.05000
C769        C  0.35369041  0.55639097  0.13676588    -0.20800
C770        C  0.37173850  0.51757413  0.14523074    -0.07400
C771        C  0.35745137  0.49633554  0.18058731     0.13500
C772        C  0.32714788  0.51571554  0.20793008    -0.20900
C773        C  0.31077557  0.55559726  0.20038855    -0.07400
C774        C  0.32304957  0.57553388  0.16341192     0.13500
C775        C  0.30325288  0.61634527  0.15075083    -0.24200
H776        H  0.36405559  0.57208055  0.10898109     0.14700
H777        H  0.31706637  0.50003416  0.23576986     0.14800
C778        C  0.37528820  0.45415747  0.19022811    -0.24200
H779        H  0.31310552  0.62464838  0.11893782     0.05000
H780        H  0.31600300  0.64113820  0.17098578     0.08200
H781        H  0.26543168  0.61504955  0.15195382     0.08200
H782        H  0.41306996  0.45486301  0.19229871     0.08200
H783        H  0.36492300  0.43239011  0.16579938     0.08200
H784        H  0.36165052  0.44255349  0.21979349     0.05000
C785        C  0.20270177  0.51534787  0.32707954    -0.20800
C786        C  0.18711037  0.54692033  0.30156887    -0.07400
C787        C  0.13996388  0.55438421  0.29823667     0.13500
C788        C  0.10971660  0.53185718  0.32258620    -0.20900
C789        C  0.12529614  0.50265931  0.35115038    -0.07400
C790        C  0.17249164  0.49330467  0.35230051     0.13500
C791        C  0.19176179  0.46170021  0.38103309    -0.24200
H792        H  0.23899097  0.50918202  0.32859129     0.14700
H793        H  0.07356531  0.53851617  0.32056278     0.14800
C794        C  0.12133492  0.58590162  0.26891706    -0.24200
H795        H  0.22943035  0.45932040  0.37832722     0.05000
H796        H  0.17728786  0.43120484  0.37349549     0.08200
H797        H  0.18364527  0.46998515  0.41325449     0.08200
H798        H  0.13301123  0.57886112  0.23728202     0.08200
H799        H  0.13314537  0.61696006  0.27778059     0.08200
H800        H  0.08346052  0.58631745  0.26890577     0.05000
C801        C  0.21063101  0.70165277  0.26461551    -0.20800
C802        C  0.25273058  0.68120282  0.26484037    -0.07400
C803        C  0.29345320  0.70456170  0.26558710     0.13500
C804        C  0.29084316  0.74754482  0.26540307    -0.20900
C805        C  0.24876630  0.76803884  0.26380066    -0.07400
C806        C  0.20802258  0.74466219  0.26369225     0.13500
C807        C  0.16159309  0.76455023  0.26353258    -0.24200
H808        H  0.17947574  0.68380543  0.26400240     0.14700
H809        H  0.32207116  0.76532059  0.26573411     0.14800
C810        C  0.33982318  0.68464437  0.26773229    -0.24200
H811        H  0.13383263  0.74159448  0.26656363     0.05000
H812        H  0.15607137  0.78099255  0.23421885     0.08200
H813        H  0.15866261  0.78630509  0.28962220     0.08200
H814        H  0.34698495  0.66739426  0.23913413     0.08200
H815        H  0.34128359  0.66359186  0.29440426     0.08200
H816        H  0.36743348  0.70766743  0.27136265     0.05000
loop_ 
_geom_bond_atom_site_label_1 
_geom_bond_atom_site_label_2 
_geom_bond_distance 
_geom_bond_site_symmetry_2 
_ccdc_geom_bond_type 
C1            N2   1.362       .  A
C1            N6   1.357       .  A
C1          C786   1.472       .  S
N2            C3   1.359       .  A
C3            N4   1.353       .  A
C3          C802   1.484       .  S
N4            C5   1.356       .  A
C5            N6   1.357       .  A
C5          C773   1.480       .  S
C7            N8   1.358       .  A
C7           N12   1.355       .  A
C7          C754   1.466       .  S
N8            C9   1.358       .  A
C9           N10   1.356       .  A
C9          C805   1.486       .  S
N10          C11   1.358       .  A
C11          N12   1.355       .  A
C11         C741   1.472       .  S
Zr13         O14   2.441       .  S
Zr13         O15   2.451       .  S
Zr13         O16   2.446       .  S
Zr13         O19   2.446   1_545  S
Zr13         O21   2.382       .  S
Zr13         O22   2.383   1_545  S
Zr13         O23   2.419       .  S
Zr13         O24   2.402   1_545  S
O14          H70   0.990       .  S
O14          H78   0.990       .  S
O15          C35   1.285       .  A
O16          C37   1.285       .  A
O17         Zr27   2.406       .  S
O17          C36   1.279       .  A
O18         Zr26   2.410       .  S
O18          C37   1.280       .  A
O19          C36   1.287       .  A
O20         Zr28   2.423       .  S
O20          C35   1.281       .  A
O21         Zr26   2.398       .  S
O21         Zr28   2.376       .  S
O22         Zr27   2.390       .  S
O22         Zr28   2.373   1_565  S
O22          H57   0.965   1_565  S
O23         Zr26   2.396       .  S
O23         Zr43   2.394   1_545  S
O23          H60   0.965       .  S
O24         Zr27   2.380       .  S
O24         Zr43   2.385       .  S
Zr25         O50   2.438       .  S
Zr25         O44   2.471       .  S
Zr25         O52   2.443       .  S
Zr25         O40   2.463       .  S
Zr25         O31   2.415       .  S
Zr25         O32   2.420   1_565  S
Zr25         O33   2.379       .  S
Zr25         O34   2.386       .  S
Zr26         O45   2.435       .  S
Zr26         O38   2.436       .  S
Zr26         O39   2.413       .  S
Zr26         O32   2.397       .  S
Zr26         O33   2.393   1_545  S
Zr27         O29   2.434       .  S
Zr27         O51   2.440       .  S
Zr27         O53   2.398       .  S
Zr27         O31   2.383       .  S
Zr27         O34   2.398       .  S
Zr28         O54   2.435       .  S
Zr28         O55   2.435       .  S
Zr28         O30   2.436       .  S
Zr28         O31   2.398   1_545  S
Zr28         O32   2.390       .  S
O29          H66   0.989       .  S
O30          H61   0.990       .  S
O30          H75   0.990       .  S
O32          H58   0.964       .  S
O33         Zr43   2.384       .  S
O34         Zr43   2.382       .  S
O34          H59   0.966       .  S
C35         C690   1.486       .  S
C36         C757   1.478       .  S
C37         C658   1.477       .  S
O38          H74   0.990       .  S
O39          C41   1.283   1_545  A
O40          C41   1.288       .  A
C41         C722   1.494   1_565  S
O42         Zr43   2.441       .  S
O42          H71   0.990       .  S
Zr43         O46   2.438       .  S
Zr43         O47   2.438       .  S
Zr43         O48   2.419       .  S
O44          C49   1.289       .  A
O45          H62   0.990       .  S
O45          H77   0.990       .  S
O46          H63   0.990       .  S
O47          H67   0.990       .  S
O47          H76   0.989       .  S
O48          C49   1.281       .  A
C49         C706   1.491       .  S
O50          H69   0.990       .  S
O50          H73   0.990       .  S
O51          H65   0.990       .  S
O51          H72   0.990       .  S
O52          C56   1.284       .  A
O53          C56   1.278       .  A
O54          H64   0.990   1_545  S
O55          H68   0.990   1_545  S
C56         C674   1.464       .  S
C79          N80   1.356       .  A
C79          N84   1.359       .  A
C79         C610   1.478       .  S
N80          C81   1.358       .  A
C81          N82   1.358       .  A
C81         C626   1.477       .  S
N82          C83   1.359       .  A
C83          N84   1.358       .  A
C83         C642   1.492       .  S
C85          N86   1.354       .  A
C85          N90   1.358       .  A
C85         C594   1.478       .  S
N86          C87   1.352       .  A
C87          N88   1.359       .  A
C87         C645   1.483       .  S
N88          C89   1.362       .  A
C89          N90   1.360       .  A
C89         C725   1.477       .  S
C91          N92   1.358       .  A
C91          N96   1.367       .  A
C91         C693   1.483       .  S
N92          C93   1.354       .  A
C93          N94   1.356       .  A
C93         C581   1.485       .  S
N94          C95   1.360       .  A
C95          N96   1.367       .  A
C95         C562   1.490       .  S
C97          N98   1.365       .  A
C97         N102   1.359       .  A
C97         C546   1.489       .  S
N98          C99   1.366       .  A
C99         N100   1.362       .  A
C99         C533   1.486       .  S
N100        C101   1.359       .  A
C101        N102   1.356       .  A
C101        C578   1.490       .  S
Zr103       O104   2.441       .  S
Zr103       O105   2.462       .  S
Zr103       O106   2.461       .  S
Zr103       O109   2.464       .  S
Zr103       O111   2.383   1_455  S
Zr103       O112   2.388   1_455  S
Zr103       O113   2.417       .  S
Zr103       O114   2.405       .  S
O104        H160   0.990       .  S
O104        H168   0.991       .  S
O105        C125   1.288   1_455  A
O106        C127   1.288       .  A
O107       Zr117   2.394       .  S
O107        C126   1.279       .  A
O108       Zr116   2.406       .  S
O108        C127   1.279       .  A
O109        C126   1.290       .  A
O110       Zr118   2.420       .  S
O110        C125   1.282       .  A
O111       Zr116   2.397   1_655  S
O111       Zr118   2.377       .  S
O112       Zr117   2.392   1_655  S
O112       Zr118   2.377       .  S
O112        H147   0.965       .  S
O113       Zr116   2.399       .  S
O113       Zr133   2.390       .  S
O113        H150   0.966       .  S
O114       Zr117   2.386       .  S
O114       Zr133   2.390       .  S
Zr115       O140   2.438       .  S
Zr115       O134   2.465       .  S
Zr115       O142   2.447       .  S
Zr115       O130   2.459       .  S
Zr115       O121   2.406       .  S
Zr115       O122   2.421       .  S
Zr115       O123   2.382   1_655  S
Zr115       O124   2.383   1_655  S
Zr116       O135   2.435       .  S
Zr116       O128   2.435   1_455  S
Zr116       O129   2.413   1_455  S
Zr116       O122   2.398   1_455  S
Zr116       O123   2.395       .  S
Zr117       O119   2.435       .  S
Zr117       O141   2.439   1_455  S
Zr117       O143   2.410   1_455  S
Zr117       O121   2.380   1_455  S
Zr117       O124   2.387       .  S
Zr118       O144   2.436       .  S
Zr118       O145   2.436       .  S
Zr118       O120   2.438       .  S
Zr118       O121   2.391       .  S
Zr118       O122   2.391       .  S
O119        H156   0.990       .  S
O120        H151   0.990       .  S
O120        H165   0.990       .  S
O122        H148   0.965       .  S
O123       Zr133   2.381       .  S
O124       Zr133   2.380       .  S
O124        H149   0.966       .  S
C125        C549   1.487       .  S
C126        C789   1.489       .  S
C127        C482   1.481       .  S
O128        H164   0.990       .  S
O129        C131   1.282       .  A
O130        C131   1.288       .  A
C131        C629   1.489       .  S
O132       Zr133   2.439       .  S
O132        H161   0.990       .  S
Zr133       O136   2.437       .  S
Zr133       O137   2.439       .  S
Zr133       O138   2.411       .  S
O134        C139   1.287   1_655  A
O135        H152   0.990       .  S
O135        H167   0.990       .  S
O136        H153   0.990       .  S
O137        H157   0.990       .  S
O137        H166   0.990       .  S
O138        C139   1.280       .  A
C139        C517   1.490       .  S
O140        H159   0.990       .  S
O140        H163   0.990       .  S
O141        H155   0.990       .  S
O141        H162   0.990       .  S
O142        C146   1.285       .  A
O143        C146   1.280       .  A
O144        H154   0.990       .  S
O145        H158   0.990       .  S
C146        C498   1.468       .  S
C169        N170   1.358       .  A
C169        N174   1.368       .  A
C169        C450   1.490       .  S
N170        C171   1.354       .  A
C171        N172   1.358       .  A
C171        C469   1.484       .  S
N172        C173   1.361       .  A
C173        N174   1.369       .  A
C173        C709   1.489       .  S
C175        N176   1.366       .  A
C175        N180   1.360       .  A
C175        C437   1.481       .  S
N176        C177   1.366       .  A
C177        N178   1.359       .  A
C177        C514   1.489       .  S
N178        C179   1.355       .  A
C179        N180   1.356       .  A
C179        C466   1.487       .  S
Zr181       O182   2.442       .  S
Zr181       O183   2.455       .  S
Zr181       O184   2.452       .  S
Zr181       O187   2.445       .  S
Zr181       O189   2.384   1_655  S
Zr181       O190   2.389   1_655  S
Zr181       O191   2.417       .  S
Zr181       O192   2.402   1_556  S
O182        H238   0.990       .  S
O182        H246   0.991       .  S
O183        C203   1.286   1_655  A
O184        C205   1.285   1_565  A
O185       Zr195   2.408   1_655  S
O185        C204   1.279       .  A
O186       Zr194   2.403       .  S
O186        C205   1.280       .  A
O187        C204   1.286   1_556  A
O188       Zr196   2.428       .  S
O188        C203   1.282       .  A
O189       Zr194   2.394   1_465  S
O189       Zr196   2.379       .  S
O190       Zr195   2.394   1_556  S
O190       Zr196   2.378       .  S
O190        H225   0.965       .  S
O191       Zr194   2.396   1_565  S
O191       Zr211   2.388   1_566  S
O191        H228   0.965   1_565  S
O192       Zr195   2.381   1_655  S
O192       Zr211   2.389   1_565  S
Zr193       O218   2.441       .  S
Zr193       O212   2.468       .  S
Zr193       O220   2.445   1_545  S
Zr193       O208   2.457       .  S
Zr193       O199   2.414   1_545  S
Zr193       O200   2.417   1_554  S
Zr193       O201   2.378   1_455  S
Zr193       O202   2.382   1_445  S
Zr194       O213   2.435       .  S
Zr194       O206   2.436   1_655  S
Zr194       O207   2.404   1_655  S
Zr194       O200   2.396   1_655  S
Zr194       O201   2.391   1_556  S
Zr195       O197   2.435   1_455  S
Zr195       O219   2.436       .  S
Zr195       O221   2.403       .  S
Zr195       O199   2.389       .  S
Zr195       O202   2.391   1_455  S
Zr196       O222   2.436       .  S
Zr196       O223   2.436       .  S
Zr196       O198   2.438       .  S
Zr196       O199   2.401   1_556  S
Zr196       O200   2.392   1_565  S
O197        H234   0.990       .  S
O198        H229   0.990       .  S
O198        H243   0.990       .  S
O200        H226   0.965       .  S
O201       Zr211   2.379       .  S
O202       Zr211   2.373   1_565  S
O202        H227   0.966       .  S
C203        C434   1.484       .  S
C204        C405   1.467       .  S
C205        C597   1.467       .  S
O206        H242   0.990       .  S
O207        C209   1.278       .  A
O208        C209   1.288   1_554  A
C209        C421   1.483       .  S
O210       Zr211   2.438   1_565  S
O210        H239   0.990   1_565  S
Zr211       O214   2.437       .  S
Zr211       O215   2.439   1_545  S
Zr211       O216   2.415       .  S
O212        C217   1.290   1_455  A
O213        H230   0.990       .  S
O213        H245   0.990       .  S
O214        H231   0.990       .  S
O215        H235   0.990       .  S
O215        H244   0.990       .  S
O216        C217   1.280       .  A
C217        C530   1.485       .  S
O218        H237   0.990       .  S
O218        H241   0.990       .  S
O219        H233   0.990       .  S
O219        H240   0.990       .  S
O220        C224   1.287       .  A
O221        C224   1.279       .  A
O222        H232   0.990       .  S
O223        H236   0.990       .  S
C224        C738   1.480       .  S
C247        N248   1.362       .  A
C247        N252   1.353       .  A
C247        C485   1.476       .  S
N248        C249   1.362       .  A
C249        N250   1.360       .  A
C249        C386   1.494       .  S
N250        C251   1.358       .  A
C251        N252   1.352       .  A
C251        C661   1.467       .  S
C253        N254   1.355       .  A
C253        N258   1.357       .  A
C253        C370   1.475       .  S
N254        C255   1.354       .  A
C255        N256   1.361       .  A
C255        C418   1.471       .  S
N256        C257   1.359       .  A
C257        N258   1.359       .  A
C257        C389   1.487       .  S
Zr259       O260   2.438       .  S
Zr259       O261   2.460       .  S
Zr259       O262   2.451       .  S
Zr259       O265   2.452       .  S
Zr259       O267   2.382       .  S
Zr259       O268   2.385       .  S
Zr259       O269   2.422   1_554  S
Zr259       O270   2.401       .  S
O260        H316   0.990       .  S
O260        H324   0.990       .  S
O261        C281   1.286       .  A
O262        C283   1.286   1_554  A
O263       Zr273   2.402       .  S
O263        C282   1.280       .  A
O264       Zr272   2.405       .  S
O264        C283   1.281       .  A
O265        C282   1.286       .  A
O266       Zr274   2.417       .  S
O266        C281   1.281       .  A
O267       Zr272   2.400   1_554  S
O267       Zr274   2.380       .  S
O268       Zr273   2.391       .  S
O268       Zr274   2.378       .  S
O268        H303   0.967       .  S
O269       Zr272   2.395       .  S
O269       Zr289   2.400       .  S
O269        H306   0.966       .  S
O270       Zr273   2.379       .  S
O270       Zr289   2.391   1_554  S
Zr271       O296   2.440       .  S
Zr271       O290   2.456       .  S
Zr271       O298   2.455       .  S
Zr271       O286   2.447       .  S
Zr271       O277   2.411   1_556  S
Zr271       O278   2.412       .  S
Zr271       O279   2.381       .  S
Zr271       O280   2.386       .  S
Zr272       O291   2.436       .  S
Zr272       O284   2.434       .  S
Zr272       O285   2.418       .  S
Zr272       O278   2.394       .  S
Zr272       O279   2.387       .  S
Zr273       O275   2.437       .  S
Zr273       O297   2.438       .  S
Zr273       O299   2.393       .  S
Zr273       O277   2.390       .  S
Zr273       O280   2.395   1_554  S
Zr274       O300   2.435       .  S
Zr274       O301   2.436       .  S
Zr274       O276   2.437       .  S
Zr274       O277   2.397       .  S
Zr274       O278   2.383   1_554  S
O275        H312   0.990       .  S
O276        H307   0.990       .  S
O276        H321   0.990       .  S
O278        H304   0.965       .  S
O279       Zr289   2.378       .  S
O280       Zr289   2.379       .  S
O280        H305   0.966       .  S
C281        C565   1.490       .  S
C282        C770   1.472       .  S
C283        C373   1.487       .  S
O284        H320   0.990       .  S
O285        C287   1.281       .  A
O286        C287   1.288       .  A
C287        C613   1.486       .  S
O288       Zr289   2.440       .  S
O288        H317   0.991       .  S
Zr289       O292   2.437       .  S
Zr289       O293   2.439   1_556  S
Zr289       O294   2.431       .  S
O290        C295   1.287       .  A
O291        H308   0.990       .  S
O291        H323   0.990       .  S
O292        H309   0.990       .  S
O293        H313   0.990   1_554  S
O293        H322   0.990       .  S
O294        C295   1.284       .  A
C295        C453   1.492       .  S
O296        H315   0.990       .  S
O296        H319   0.990       .  S
O297        H311   0.990       .  S
O297        H318   0.990       .  S
O298        C302   1.287   1_556  A
O299        C302   1.277       .  A
O300        H310   0.990       .  S
O301        H314   0.990   1_554  S
C302        C357   1.479       .  S
C325        N326   1.357       .  A
C325        N330   1.357       .  A
C325        C677   1.473       .  S
N326        C327   1.357       .  A
C327        N328   1.360       .  A
C327        C501   1.478       .  S
N328        C329   1.357       .  A
C329        N330   1.356       .  A
C329        C341   1.484       .  S
C331        N332   1.355       .  A
C331        N336   1.360       .  A
C331        C354   1.473       .  S
N332        C333   1.355       .  A
C333        N334   1.356       .  A
C333        C402   1.461       .  S
N334        C335   1.356       .  A
C335        N336   1.358       .  A
C335        C338   1.478       .  S
C337        C338   1.403       .  A
C337        C342   1.405       .  A
C337        H344   1.084       .  S
C338        C339   1.414       .  A
C339        C340   1.403       .  A
C339        C346   1.509       .  S
C340        C341   1.405       .  A
C340        H345   1.083       .  S
C341        C342   1.417       .  A
C342        C343   1.508       .  S
C343        H347   1.111       .  S
C343        H348   1.110       .  S
C343        H349   1.109       .  S
C346        H350   1.110       .  S
C346        H351   1.109       .  S
C346        H352   1.111       .  S
C353        C354   1.398       .  A
C353        C358   1.398       .  A
C353        H360   1.085       .  S
C354        C355   1.414       .  A
C355        C356   1.405       .  A
C355        C362   1.507       .  S
C356        C357   1.404       .  A
C356        H361   1.084       .  S
C357        C358   1.419       .  A
C358        C359   1.509       .  S
C359        H363   1.111       .  S
C359        H364   1.108       .  S
C359        H365   1.110       .  S
C362        H366   1.110       .  S
C362        H367   1.110       .  S
C362        H368   1.111       .  S
C369        C370   1.402       .  A
C369        C374   1.402       .  A
C369        H376   1.084       .  S
C370        C371   1.412       .  A
C371        C372   1.401       .  A
C371        C378   1.508       .  S
C372        C373   1.408       .  A
C372        H377   1.084       .  S
C373        C374   1.418       .  A
C374        C375   1.505   1_556  S
C375        H379   1.111       .  S
C375        H380   1.110       .  S
C375        H381   1.108       .  S
C378        H382   1.108       .  S
C378        H383   1.110       .  S
C378        H384   1.111       .  S
C385        C386   1.408       .  A
C385        C390   1.409       .  A
C385        H392   1.084       .  S
C386        C387   1.419       .  A
C387        C388   1.402       .  A
C387        C394   1.506       .  S
C388        C389   1.402       .  A
C388        H393   1.083       .  S
C389        C390   1.416       .  A
C390        C391   1.507       .  S
C391        H395   1.111       .  S
C391        H396   1.111       .  S
C391        H397   1.109       .  S
C394        H398   1.110       .  S
C394        H399   1.109       .  S
C394        H400   1.111       .  S
C401        C402   1.401       .  A
C401        C406   1.403       .  A
C401        H408   1.084       .  S
C402        C403   1.411       .  A
C403        C404   1.399       .  A
C403        C410   1.509       .  S
C404        C405   1.401       .  A
C404        H409   1.085       .  S
C405        C406   1.412       .  A
C406        C407   1.507       .  S
C407        H411   1.111       .  S
C407        H412   1.110       .  S
C407        H413   1.110   1_554  S
C410        H414   1.111       .  S
C410        H415   1.108       .  S
C410        H416   1.110       .  S
C417        C418   1.398       .  A
C417        C422   1.402       .  A
C417        H424   1.085       .  S
C418        C419   1.413       .  A
C419        C420   1.403       .  A
C419        C426   1.508       .  S
C420        C421   1.405       .  A
C420        H425   1.084   1_556  S
C421        C422   1.421       .  A
C422        C423   1.509       .  S
C423        H427   1.111       .  S
C423        H428   1.110       .  S
C423        H429   1.108       .  S
C426        H430   1.110       .  S
C426        H431   1.111       .  S
C426        H432   1.111       .  S
C433        C434   1.404       .  A
C433        C438   1.408       .  A
C433        H440   1.084       .  S
C434        C435   1.414       .  A
C435        C436   1.410       .  A
C435        C442   1.506       .  S
C436        C437   1.403       .  A
C436        H441   1.084       .  S
C437        C438   1.413       .  A
C438        C439   1.506       .  S
C439        H443   1.111       .  S
C439        H444   1.111       .  S
C439        H445   1.109       .  S
C442        H446   1.110   1_455  S
C442        H447   1.110       .  S
C442        H448   1.111       .  S
C449        C450   1.405       .  A
C449        C454   1.414       .  A
C449        H456   1.084       .  S
C450        C451   1.417       .  A
C451        C452   1.406       .  A
C451        C458   1.509       .  S
C452        C453   1.403       .  A
C452        H457   1.084       .  S
C453        C454   1.418       .  A
C454        C455   1.506       .  S
C455        H459   1.111       .  S
C455        H460   1.111       .  S
C455        H461   1.110       .  S
C458        H462   1.109       .  S
C458        H463   1.110       .  S
C458        H464   1.111       .  S
C465        C466   1.405       .  A
C465        C470   1.406       .  A
C465        H472   1.084       .  S
C466        C467   1.417       .  A
C467        C468   1.407       .  A
C467        C474   1.507       .  S
C468        C469   1.403       .  A
C468        H473   1.084       .  S
C469        C470   1.415       .  A
C470        C471   1.508       .  S
C471        H475   1.111       .  S
C471        H476   1.109       .  S
C471        H477   1.110       .  S
C474        H478   1.109       .  S
C474        H479   1.110       .  S
C474        H480   1.111       .  S
C481        C482   1.404       .  A
C481        C486   1.403       .  A
C481        H488   1.084       .  S
C482        C483   1.418       .  A
C483        C484   1.403       .  A
C483        C490   1.508       .  S
C484        C485   1.400       .  A
C484        H489   1.084       .  S
C485        C486   1.415       .  A
C486        C487   1.508       .  S
C487        H491   1.111       .  S
C487        H492   1.109       .  S
C487        H493   1.110       .  S
C490        H494   1.111       .  S
C490        H495   1.108       .  S
C490        H496   1.111       .  S
C497        C498   1.400       .  A
C497        C502   1.406       .  A
C497        H504   1.084       .  S
C498        C499   1.410       .  A
C499        C500   1.400       .  A
C499        C506   1.508       .  S
C500        C501   1.403       .  A
C500        H505   1.084       .  S
C501        C502   1.418       .  A
C502        C503   1.507       .  S
C503        H507   1.111       .  S
C503        H508   1.110       .  S
C503        H509   1.111       .  S
C506        H510   1.111       .  S
C506        H511   1.109       .  S
C506        H512   1.111       .  S
C513        C514   1.408       .  A
C513        C518   1.415       .  A
C513        H520   1.084       .  S
C514        C515   1.416       .  A
C515        C516   1.401       .  A
C515        C522   1.510       .  S
C516        C517   1.403       .  A
C516        H521   1.085       .  S
C517        C518   1.416       .  A
C518        C519   1.505   1_455  S
C519        H523   1.111       .  S
C519        H524   1.110       .  S
C519        H525   1.110       .  S
C522        H526   1.108       .  S
C522        H527   1.110       .  S
C522        H528   1.111       .  S
C529        C530   1.405       .  A
C529        C534   1.409       .  A
C529        H536   1.084       .  S
C530        C531   1.413       .  A
C531        C532   1.411       .  A
C531        C538   1.506       .  S
C532        C533   1.404       .  A
C532        H537   1.084       .  S
C533        C534   1.413       .  A
C534        C535   1.506       .  S
C535        H539   1.111       .  S
C535        H540   1.108       .  S
C535        H541   1.110       .  S
C538        H542   1.111       .  S
C538        H543   1.110   1_655  S
C538        H544   1.111       .  S
C545        C546   1.407       .  A
C545        C550   1.414       .  A
C545        H552   1.084       .  S
C546        C547   1.416       .  A
C547        C548   1.403       .  A
C547        C554   1.508       .  S
C548        C549   1.402       .  A
C548        H553   1.085       .  S
C549        C550   1.415       .  A
C550        C551   1.505   1_655  S
C551        H555   1.111       .  S
C551        H556   1.111       .  S
C551        H557   1.110       .  S
C554        H558   1.107       .  S
C554        H559   1.110       .  S
C554        H560   1.111       .  S
C561        C562   1.406       .  A
C561        C566   1.413       .  A
C561        H568   1.084       .  S
C562        C563   1.416       .  A
C563        C564   1.404       .  A
C563        C570   1.509       .  S
C564        C565   1.404       .  A
C564        H569   1.084       .  S
C565        C566   1.416       .  A
C566        C567   1.506       .  S
C567        H571   1.111       .  S
C567        H572   1.110       .  S
C567        H573   1.111       .  S
C570        H574   1.111       .  S
C570        H575   1.108       .  S
C570        H576   1.111       .  S
C577        C578   1.407       .  A
C577        C582   1.407       .  A
C577        H584   1.083       .  S
C578        C579   1.416       .  A
C579        C580   1.407       .  A
C579        C586   1.506       .  S
C580        C581   1.404       .  A
C580        H585   1.084       .  S
C581        C582   1.414       .  A
C582        C583   1.508       .  S
C583        H587   1.111       .  S
C583        H588   1.111       .  S
C583        H589   1.109       .  S
C586        H590   1.110       .  S
C586        H591   1.109       .  S
C586        H592   1.111       .  S
C593        C594   1.409       .  A
C593        C598   1.408   1_545  A
C593        H600   1.084       .  S
C594        C595   1.417       .  A
C595        C596   1.394       .  A
C595        C602   1.511       .  S
C596        C597   1.399       .  A
C596        H601   1.085       .  S
C597        C598   1.408   1_545  A
C598        C599   1.505       .  S
C599        H603   1.111       .  S
C599        H604   1.109       .  S
C599        H605   1.111       .  S
C602        H606   1.110       .  S
C602        H607   1.109       .  S
C602        H608   1.111       .  S
C609        C610   1.401       .  A
C609        C614   1.403       .  A
C609        H616   1.084       .  S
C610        C611   1.413       .  A
C611        C612   1.404       .  A
C611        C618   1.507       .  S
C612        C613   1.407       .  A
C612        H617   1.084       .  S
C613        C614   1.419       .  A
C614        C615   1.509       .  S
C615        H619   1.111       .  S
C615        H620   1.111       .  S
C615        H621   1.108       .  S
C618        H622   1.110       .  S
C618        H623   1.110       .  S
C618        H624   1.111       .  S
C625        C626   1.401       .  A
C625        C630   1.403       .  A
C625        H632   1.084       .  S
C626        C627   1.412       .  A
C627        C628   1.402       .  A
C627        C634   1.507       .  S
C628        C629   1.408       .  A
C628        H633   1.084       .  S
C629        C630   1.419       .  A
C630        C631   1.505       .  S
C631        H635   1.111       .  S
C631        H636   1.111       .  S
C631        H637   1.108       .  S
C634        H638   1.108       .  S
C634        H639   1.110       .  S
C634        H640   1.111       .  S
C641        C642   1.406       .  A
C641        C646   1.403       .  A
C641        H648   1.083       .  S
C642        C643   1.421       .  A
C643        C644   1.407       .  A
C643        C650   1.508       .  S
C644        C645   1.402       .  A
C644        H649   1.084       .  S
C645        C646   1.416       .  A
C646        C647   1.509       .  S
C647        H651   1.111       .  S
C647        H652   1.111       .  S
C647        H653   1.109       .  S
C650        H654   1.110       .  S
C650        H655   1.110       .  S
C650        H656   1.111       .  S
C657        C658   1.406       .  A
C657        C662   1.401       .  A
C657        H664   1.084       .  S
C658        C659   1.417       .  A
C659        C660   1.400       .  A
C659        C666   1.507       .  S
C660        C661   1.399       .  A
C660        H665   1.085       .  S
C661        C662   1.409       .  A
C662        C663   1.505       .  S
C663        H667   1.111       .  S
C663        H668   1.104       .  S
C663        H669   1.110       .  S
C666        H670   1.110       .  S
C666        H671   1.108       .  S
C666        H672   1.111       .  S
C673        C674   1.399       .  A
C673        C678   1.398       .  A
C673        H680   1.085       .  S
C674        C675   1.409       .  A
C675        C676   1.405       .  A
C675        C682   1.506       .  S
C676        C677   1.406       .  A
C676        H681   1.084       .  S
C677        C678   1.414       .  A
C678        C679   1.508       .  S
C679        H683   1.111       .  S
C679        H684   1.107       .  S
C679        H685   1.111       .  S
C682        H686   1.111       .  S
C682        H687   1.110       .  S
C682        H688   1.111       .  S
C689        C690   1.406       .  A
C689        C694   1.411       .  A
C689        H696   1.084       .  S
C690        C691   1.415       .  A
C691        C692   1.405       .  A
C691        C698   1.508       .  S
C692        C693   1.403       .  A
C692        H697   1.084       .  S
C693        C694   1.413       .  A
C694        C695   1.506       .  S
C695        H699   1.111       .  S
C695        H700   1.111       .  S
C695        H701   1.110       .  S
C698        H702   1.108       .  S
C698        H703   1.110       .  S
C698        H704   1.111       .  S
C705        C706   1.406       .  A
C705        C710   1.414       .  A
C705        H712   1.084       .  S
C706        C707   1.415       .  A
C707        C708   1.407       .  A
C707        C714   1.507       .  S
C708        C709   1.403       .  A
C708        H713   1.084       .  S
C709        C710   1.415       .  A
C710        C711   1.505       .  S
C711        H715   1.111       .  S
C711        H716   1.110       .  S
C711        H717   1.110       .  S
C714        H718   1.111       .  S
C714        H719   1.107       .  S
C714        H720   1.111       .  S
C721        C722   1.410       .  A
C721        C726   1.402       .  A
C721        H728   1.084       .  S
C722        C723   1.421       .  A
C723        C724   1.406       .  A
C723        C730   1.505   1_545  S
C724        C725   1.402       .  A
C724        H729   1.084       .  S
C725        C726   1.410       .  A
C726        C727   1.508       .  S
C727        H731   1.111       .  S
C727        H732   1.109       .  S
C727        H733   1.110       .  S
C730        H734   1.110       .  S
C730        H735   1.108       .  S
C730        H736   1.111       .  S
C737        C738   1.404       .  A
C737        C742   1.404       .  A
C737        H744   1.084       .  S
C738        C739   1.419       .  A
C739        C740   1.399       .  A
C739        C746   1.508       .  S
C740        C741   1.398       .  A
C740        H745   1.085       .  S
C741        C742   1.414       .  A
C742        C743   1.507       .  S
C743        H747   1.111       .  S
C743        H748   1.110       .  S
C743        H749   1.110       .  S
C746        H750   1.108       .  S
C746        H751   1.110       .  S
C746        H752   1.111       .  S
C753        C754   1.398       .  A
C753        C758   1.400       .  A
C753        H760   1.085       .  S
C754        C755   1.410       .  A
C755        C756   1.402       .  A
C755        C762   1.507       .  S
C756        C757   1.406       .  A
C756        H761   1.084       .  S
C757        C758   1.419       .  A
C758        C759   1.509       .  S
C759        H763   1.111       .  S
C759        H764   1.109       .  S
C759        H765   1.110       .  S
C762        H766   1.110       .  S
C762        H767   1.110       .  S
C762        H768   1.111       .  S
C769        C770   1.400       .  A
C769        C774   1.396       .  A
C769        H776   1.085       .  S
C770        C771   1.410       .  A
C771        C772   1.407       .  A
C771        C778   1.506       .  S
C772        C773   1.409       .  A
C772        H777   1.084       .  S
C773        C774   1.417       .  A
C774        C775   1.511       .  S
C775        H779   1.111       .  S
C775        H780   1.108       .  S
C775        H781   1.111       .  S
C778        H782   1.110       .  S
C778        H783   1.109       .  S
C778        H784   1.111       .  S
C785        C786   1.402       .  A
C785        C790   1.407       .  A
C785        H792   1.084       .  S
C786        C787   1.408       .  A
C787        C788   1.399       .  A
C787        C794   1.508       .  S
C788        C789   1.410       .  A
C788        H793   1.084       .  S
C789        C790   1.418       .  A
C790        C791   1.505       .  S
C791        H795   1.111       .  S
C791        H796   1.109       .  S
C791        H797   1.110       .  S
C794        H798   1.110       .  S
C794        H799   1.109       .  S
C794        H800   1.111       .  S
C801        C802   1.403       .  A
C801        C806   1.405       .  A
C801        H808   1.084       .  S
C802        C803   1.417       .  A
C803        C804   1.404       .  A
C803        C810   1.509       .  S
C804        C805   1.404       .  A
C804        H809   1.084       .  S
C805        C806   1.418       .  A
C806        C807   1.508       .  S
C807        H811   1.111       .  S
C807        H812   1.109       .  S
C807        H813   1.110       .  S
C810        H814   1.108       .  S
C810        H815   1.110       .  S
C810        H816   1.111       .  S
