geometry optimzed in LAMMPS
_audit_creation_date              2020-11-30 
_audit_creation_method            'lammps2cif' 
_symmetry_space_group_name_H-M    'P1' 
_symmetry_Int_Tables_number       1 
_symmetry_cell_setting            triclinic 
loop_ 
_symmetry_equiv_pos_as_xyz 
  x,y,z 
_cell_length_a                    43.37678421422777 
_cell_length_b                    43.37326212621044 
_cell_length_c                    43.25917080990682 
_cell_angle_alpha                 89.80155499701375 
_cell_angle_beta                  90.05180538794288 
_cell_angle_gamma                 90.04929247672491 
loop_ 
_atom_site_label 
_atom_site_type_symbol 
_atom_site_fract_x 
_atom_site_fract_y 
_atom_site_fract_z 
_atom_site_charge 
C1          C  0.51447505  0.25253513  0.24071238     0.00570
C2          C  0.48290990  0.25372150  0.23953973     0.00570
C3          C  0.51672609  0.75487617  0.25074378     0.00570
C4          C  0.48540725  0.75886970  0.25225283     0.00570
C5          C  0.51523541  0.24923096  0.74875836     0.00570
C6          C  0.48402700  0.24533934  0.74647272     0.00570
C7          C  0.24510882  0.25346806  0.51615317     0.00570
C8          C  0.24695519  0.24936353  0.48482289     0.00570
C9          C  0.25438577  0.98516122  0.75048079     0.00570
C10         C  0.25347239  0.01660985  0.75218820     0.00570
O11         O  0.36882966  0.18344605  0.78926760    -0.85340
O12         O  0.32772975  0.13314130  0.80279729    -0.82390
C13         C  0.30312555  0.12055038  0.81257283     0.98120
O14         O  0.28154427  0.13715658  0.82273357    -0.82420
O15         O  0.29666305  0.17545885  0.87237157    -0.85070
C16         C  0.30612468  0.19916495  0.88635395     1.02650
O17         O  0.31697597  0.22153326  0.87111138    -0.77830
O18         O  0.36769995  0.20404729  0.83546514    -0.78020
C19         C  0.38271835  0.19555510  0.81205517     1.02600
O20         O  0.31997296  0.21141141  0.75487186    -0.85340
O21         O  0.28298479  0.16085201  0.76391676    -0.82400
C22         C  0.25671797  0.17222267  0.76911993     0.98140
O23         O  0.25140664  0.18677807  0.79373698    -0.82430
O24         O  0.26137264  0.22355997  0.84403793    -0.85040
C25         C  0.26747038  0.24884503  0.83085891     1.02610
O26         O  0.29330902  0.25330054  0.81858491    -0.77860
O27         O  0.34499423  0.24136627  0.78686965    -0.78000
C28         C  0.33246464  0.23690140  0.76117903     1.02570
Cr29       Cr  0.32421452  0.17360262  0.78059953     1.93740
Cr30       Cr  0.27571179  0.18147599  0.83199683     1.93210
Cr31       Cr  0.32939031  0.22709594  0.82728157     1.39100
O32         O  0.31010238  0.19358672  0.81357522    -1.23090
O33         O  0.17060089  0.30548298  0.86666135    -0.85340
O34         O  0.13269189  0.28839939  0.81821393    -0.82390
C35         C  0.11656350  0.31036107  0.80781905     0.98120
O36         O  0.12971320  0.33407457  0.79690461    -0.82420
O37         O  0.17962291  0.37257940  0.78192442    -0.85070
C38         C  0.19018644  0.38802979  0.80433791     1.02650
O39         O  0.20142790  0.37438521  0.82757478    -0.77830
O40         O  0.21728382  0.32464963  0.86652601    -0.78020
C41         C  0.19424757  0.31422436  0.88123873     1.02600
O42         O  0.21816169  0.26766765  0.84194823    -0.85340
O43         O  0.18263421  0.25645210  0.79069841    -0.82400
C44         C  0.16957941  0.26213696  0.76523168     0.98140
O45         O  0.15653867  0.28750575  0.76027488    -0.82430
O46         O  0.20700187  0.32202680  0.74935118    -0.85040
C47         C  0.23300075  0.33383390  0.75450034     1.02610
O48         O  0.23808611  0.34786421  0.77952799    -0.77860
O49         O  0.24900536  0.29766253  0.81546074    -0.78000
C50         C  0.24389787  0.27271684  0.82945230     1.02570
Cr51       Cr  0.17679023  0.28217598  0.82806076     1.93740
Cr52       Cr  0.16976019  0.32852728  0.77497564     1.93210
Cr53       Cr  0.22350238  0.33488395  0.82150682     1.39100
O54         O  0.18964332  0.31556974  0.80850044    -1.23090
O55         O  0.28629651  0.36731007  0.68004299    -0.85340
O56         O  0.30030759  0.32876343  0.62908333    -0.82390
C57         C  0.30882987  0.30497043  0.61462944     0.98120
O58         O  0.31834790  0.28176860  0.62944887    -0.82420
O59         O  0.36924704  0.29715633  0.66631549    -0.85070
C60         C  0.38418353  0.30502943  0.69013056     1.02650
O61         O  0.37009702  0.31489887  0.71379910    -0.77830
O62         O  0.33221821  0.36584848  0.70122657    -0.78020
C63         C  0.30878442  0.38095547  0.69285862     1.02600
O64         O  0.25230463  0.31768833  0.70618039    -0.85340
O65         O  0.26220134  0.28145028  0.65615784    -0.82400
C66         C  0.26724097  0.25584783  0.66938759     0.98140
O67         O  0.29316512  0.24983379  0.68083328    -0.82430
O68         O  0.34509402  0.25834978  0.71332392    -0.85040
C69         C  0.33218122  0.26195654  0.73899066     1.02610
O70         O  0.31938983  0.28713354  0.74577342    -0.77860
O71         O  0.28467194  0.33965894  0.73821412    -0.78000
C72         C  0.25780686  0.33044818  0.73168010     1.02570
Cr73       Cr  0.27826108  0.32291856  0.66898932     1.93740
Cr74       Cr  0.33016786  0.27474389  0.67323584     1.93210
Cr75       Cr  0.32577374  0.32570504  0.72198432     1.39100
O76         O  0.31161544  0.30821702  0.68783888    -1.23090
O77         O  0.12867508  0.16969357  0.70457620    -0.85340
O78         O  0.17978459  0.12981724  0.71836721    -0.82390
C79         C  0.19162707  0.11643768  0.69528200     0.98120
O80         O  0.19915426  0.13197825  0.67182751    -0.82420
O81         O  0.21338941  0.18316107  0.63437323    -0.85070
C82         C  0.19057189  0.19585743  0.62099759     1.02650
O83         O  0.16755487  0.20423270  0.63654491    -0.77830
O84         O  0.13168365  0.21714443  0.68737353    -0.78020
C85         C  0.11555106  0.19431455  0.69571864     1.02600
O86         O  0.15594675  0.21447714  0.74397360    -0.85340
O87         O  0.20604257  0.17978260  0.75205611    -0.82400
C88         C  0.23227442  0.16923116  0.74596640     0.98140
O89         O  0.23770874  0.15689568  0.72005028    -0.82430
O90         O  0.24771899  0.20765406  0.68500694    -0.85040
C91         C  0.24260504  0.23313150  0.67207177     1.02610
O92         O  0.21617375  0.23960024  0.66200371    -0.77860
O93         O  0.18301206  0.24648704  0.71546258    -0.78000
C94         C  0.16982656  0.23976157  0.74053820     1.02570
Cr95       Cr  0.16890019  0.17408657  0.72667390     1.93740
Cr96       Cr  0.22164735  0.17093543  0.67869727     1.93210
Cr97       Cr  0.17537263  0.22405416  0.67663559     1.39100
O98         O  0.18832999  0.18929891  0.69359993    -1.23090
C99         C  0.01592864  0.25257525  0.75224057     0.00570
C100        C  0.98453269  0.25432447  0.75084697     0.00570
C101        C  0.24977863  0.48468122  0.74783866     0.00570
C102        C  0.25590392  0.51536498  0.75172065     0.00570
C103        C  0.75650311  0.51401734  0.25881767     0.00570
C104        C  0.75655585  0.48239775  0.26065027     0.00570
C105        C  0.74648293  0.24857593  0.98532533     0.00570
C106        C  0.74236098  0.25061036  0.01651165     0.00570
O107        O  0.78143779  0.36938342  0.18123157    -0.85340
O108        O  0.79666594  0.33181332  0.13010728    -0.82390
C109        C  0.80475119  0.30809281  0.11524968     0.98120
O110        O  0.81572648  0.28490560  0.12938349    -0.82420
O111        O  0.86650936  0.29719415  0.16934876    -0.85070
C112        C  0.87998891  0.30613752  0.19373522     1.02650
O113        O  0.86424881  0.31666420  0.21583892    -0.77830
O114        O  0.82815739  0.36718810  0.19999763    -0.78020
C115        C  0.80492999  0.38284275  0.19225041     1.02600
O116        O  0.74805452  0.31772233  0.20587707    -0.85340
O117        O  0.75754028  0.28482216  0.15429958    -0.82400
C118        C  0.76186032  0.25871562  0.16638458     0.98140
O119        O  0.78731494  0.25191921  0.17875141    -0.82430
O120        O  0.83826105  0.25997314  0.21552896    -0.85040
C121        C  0.82744521  0.26584562  0.24198921     1.02610
O122        O  0.81363824  0.29079864  0.24719685    -0.77860
O123        O  0.77915760  0.34221095  0.23709827    -0.78000
C124        C  0.75359369  0.32932416  0.23185661     1.02570
Cr125      Cr  0.77382465  0.32515546  0.16908436     1.93740
Cr126      Cr  0.82565645  0.27639887  0.17397930     1.93210
Cr127      Cr  0.82044524  0.32810548  0.22213205     1.39100
O128        O  0.80697181  0.31004047  0.18808391    -1.23090
O129        O  0.79770422  0.13129857  0.33017394    -0.85340
O130        O  0.78544715  0.18196596  0.36800881    -0.82390
C131        C  0.80790183  0.19170094  0.38384315     0.98120
O132        O  0.83199839  0.20159866  0.37052310    -0.82420
O133        O  0.87065852  0.21546653  0.31865563    -0.85070
C134        C  0.88435673  0.19239329  0.30719554     1.02650
O135        O  0.86905487  0.16927685  0.29853118    -0.77830
O136        O  0.81873329  0.13265138  0.28422929    -0.78020
C137        C  0.80743486  0.11737020  0.30646547     1.02600
O138        O  0.76121636  0.15866796  0.28357657    -0.85340
O139        O  0.75383954  0.21101000  0.31856214    -0.82400
C140        C  0.76063078  0.23626380  0.33134338     0.98140
O141        O  0.78632748  0.24006234  0.34423589    -0.82430
O142        O  0.81968263  0.24884919  0.29297010    -0.85040
C143        C  0.83051711  0.24310198  0.26671176     1.02610
O144        O  0.84346820  0.21766111  0.26139736    -0.77860
O145        O  0.79212623  0.18294604  0.25179022    -0.78000
C146        C  0.76692695  0.16956071  0.25724521     1.02570
Cr147      Cr  0.77745247  0.17215084  0.32435060     1.93740
Cr148      Cr  0.82652042  0.22341837  0.33019988     1.93210
Cr149      Cr  0.82967042  0.17651816  0.27690518     1.39100
O150        O  0.81163522  0.19018590  0.31095912    -1.23090
O151        O  0.62872068  0.32681097  0.29850481    -0.85340
O152        O  0.67906587  0.36414345  0.28330019    -0.82390
C153        C  0.69019865  0.37995430  0.30509684     0.98120
O154        O  0.70030373  0.36645990  0.32915581    -0.82420
O155        O  0.71356122  0.31520458  0.36894447    -0.85070
C156        C  0.69084501  0.30441387  0.38394313     1.02650
O157        O  0.66677987  0.29599315  0.36963903    -0.77830
O158        O  0.62842851  0.28076784  0.31899460    -0.78020
C159        C  0.61396516  0.30333496  0.30738668     1.02600
O160        O  0.65449269  0.27897453  0.26165875    -0.85340
O161        O  0.70537021  0.31384468  0.25134811    -0.82400
C162        C  0.73058473  0.32725729  0.25638820     0.98140
O163        O  0.73659279  0.33840763  0.28262269    -0.82430
O164        O  0.74509703  0.28687994  0.31876875    -0.85040
C165        C  0.73852059  0.26146186  0.33146073     1.02610
O166        O  0.71290148  0.25739027  0.34434347    -0.77860
O167        O  0.67930713  0.24813057  0.29304522    -0.78000
C168        C  0.66772702  0.25366981  0.26695221     1.02570
Cr169      Cr  0.66819314  0.32016750  0.27672645     1.93740
Cr170      Cr  0.72092064  0.32542883  0.32420242     1.93210
Cr171      Cr  0.67254931  0.27356487  0.33016720     1.39100
O172        O  0.68686733  0.30688352  0.31079097    -1.23090
O173        O  0.71539622  0.12647985  0.18395655    -0.85340
O174        O  0.70027170  0.16281846  0.13229755    -0.82390
C175        C  0.69322301  0.18644586  0.11684444     0.98120
O176        O  0.68349229  0.21046208  0.13032980    -0.82420
O177        O  0.63268856  0.19894503  0.16901732    -0.85070
C178        C  0.61783214  0.19085276  0.19283175     1.02650
O179        O  0.63207711  0.18040842  0.21621715    -0.77830
O180        O  0.66840603  0.12946685  0.20186892    -0.78020
C181        C  0.69160933  0.11355572  0.19493516     1.02600
O182        O  0.74926274  0.17813558  0.20694172    -0.85340
O183        O  0.74031632  0.21027002  0.15504770    -0.82400
C184        C  0.73661883  0.23651806  0.16691488     0.98140
O185        O  0.71150667  0.24366821  0.17966328    -0.82430
O186        O  0.65977752  0.23669302  0.21572692    -0.85040
C187        C  0.67027778  0.23083655  0.24242218     1.02610
O188        O  0.68342321  0.20568121  0.24812724    -0.77860
O189        O  0.71780716  0.15469369  0.23892045    -0.78000
C190        C  0.74358861  0.16719992  0.23316850     1.02570
Cr191      Cr  0.72347704  0.17023419  0.17070461     1.93740
Cr192      Cr  0.67297998  0.21976069  0.17452789     1.93210
Cr193      Cr  0.67629835  0.16854110  0.22348202     1.39100
O194        O  0.69066521  0.18608278  0.18941691    -1.23090
C195        C  0.74399757  0.01452371  0.26071355     0.00570
C196        C  0.74353126  0.98301339  0.26030819     0.00570
C197        C  0.73997246  0.23602450  0.48390866     0.00570
C198        C  0.74151954  0.23559888  0.51555315     0.00570
C199        C  0.74791026  0.74454837  0.98427079     0.00570
C200        C  0.74854348  0.74644187  0.01585972     0.00570
O201        O  0.79840494  0.66465274  0.13377089    -0.85340
O202        O  0.78687290  0.62836666  0.18691419    -0.82390
C203        C  0.81049303  0.61415158  0.19623363     0.98120
O204        O  0.83462507  0.62906260  0.20307936    -0.82420
O205        O  0.87254814  0.68131667  0.21305655    -0.85070
C206        C  0.88498740  0.69377203  0.18969345     1.02650
O207        O  0.86882227  0.70351230  0.16746727    -0.77830
O208        O  0.81625691  0.71205551  0.13104736    -0.78020
C209        C  0.80558911  0.68819697  0.11792980     1.02600
O210        O  0.75964392  0.71042297  0.15856788    -0.85340
O211        O  0.75592443  0.67946694  0.21305320    -0.82400
C212        C  0.76413460  0.66932222  0.23910599     0.98140
O213        O  0.78985679  0.65643862  0.24288438    -0.82430
O214        O  0.82378388  0.70677528  0.24901134    -0.85040
C215        C  0.83330482  0.73327589  0.24249789     1.02610
O216        O  0.84192069  0.74000205  0.21535332    -0.77860
O217        O  0.78875603  0.74512990  0.18066908    -0.78000
C218        C  0.76364466  0.73736973  0.16817458     1.02570
Cr219      Cr  0.77828026  0.67163022  0.17428817     1.93740
Cr220      Cr  0.82926564  0.66966347  0.22378129     1.93210
Cr221      Cr  0.82791437  0.72214102  0.17479460     1.39100
O222        O  0.81234326  0.68752224  0.19056286    -1.23090
O223        O  0.82450779  0.86826934  0.28240996    -0.85340
O224        O  0.87346969  0.82867157  0.30001884    -0.82390
C225        C  0.88600598  0.80421069  0.30982271     0.98120
O226        O  0.86941135  0.78260634  0.32042418    -0.82420
O227        O  0.83072582  0.79898987  0.36924980    -0.85070
C228        C  0.80744323  0.81006349  0.38276574     1.02650
O229        O  0.78558555  0.82133237  0.36691091    -0.77830
O230        O  0.80414359  0.86963855  0.32853638    -0.78020
C231        C  0.81383697  0.88361445  0.30482991     1.02600
O232        O  0.79795506  0.81759624  0.25006547    -0.85340
O233        O  0.84740960  0.78184842  0.26217198    -0.82400
C234        C  0.83345384  0.75675024  0.26673855     0.98140
O235        O  0.81911152  0.75201319  0.29169879    -0.82430
O236        O  0.78278904  0.76368745  0.34219798    -0.85040
C237        C  0.75729894  0.76967489  0.32950574     1.02610
O238        O  0.75313515  0.79499408  0.31581576    -0.77860
O239        O  0.76732139  0.84451472  0.27980199    -0.78000
C240        C  0.77258465  0.83071839  0.25470648     1.02570
Cr241      Cr  0.83439246  0.82355018  0.27658366     1.93740
Cr242      Cr  0.82492065  0.77709014  0.32952652     1.93210
Cr243      Cr  0.78031168  0.83127310  0.32205755     1.39100
O244        O  0.81352590  0.81092385  0.30975455    -1.23090
O245        O  0.63315456  0.79918378  0.16840194    -0.85340
O246        O  0.68388797  0.78783382  0.12713643    -0.82390
C247        C  0.69591888  0.81089320  0.11384189     0.98120
O248        O  0.70526852  0.83348642  0.12958199    -0.82420
O249        O  0.71935370  0.86873515  0.18193716    -0.85070
C250        C  0.69673539  0.88235991  0.19429110     1.02650
O251        O  0.67399257  0.86696077  0.20417352    -0.77830
O252        O  0.63770813  0.81547194  0.21602634    -0.78020
C253        C  0.62087241  0.80773017  0.19364793     1.02600
O254        O  0.66147119  0.75834707  0.21078446    -0.85340
O255        O  0.71197993  0.75217337  0.17493163    -0.82400
C256        C  0.73844718  0.75940556  0.16531538     0.98140
O257        O  0.74354853  0.78550876  0.15362853    -0.82430
O258        O  0.75352507  0.81762578  0.20545128    -0.85040
C259        C  0.74841862  0.82934192  0.23142949     1.02610
O260        O  0.72212485  0.83936763  0.23817632    -0.77860
O261        O  0.68776068  0.78570170  0.24436890    -0.78000
C262        C  0.67384199  0.76118825  0.23688978     1.02570
Cr263      Cr  0.67410719  0.77747789  0.17107122     1.93740
Cr264      Cr  0.72732508  0.82536966  0.16887905     1.93210
Cr265      Cr  0.68126184  0.82565333  0.22264020     1.39100
O266        O  0.69382020  0.80992882  0.18709551    -1.23090
O267        O  0.70458952  0.67168208  0.36796601    -0.85340
O268        O  0.71903290  0.63469992  0.31801493    -0.82390
C269        C  0.69703253  0.61807575  0.30870488     0.98120
O270        O  0.67253283  0.63064702  0.29845674    -0.82420
O271        O  0.63302162  0.68138023  0.28347271    -0.85070
C272        C  0.61707177  0.69197079  0.30527465     1.02650
O273        O  0.63031012  0.70165612  0.32961120    -0.77830
O274        O  0.68160525  0.71666635  0.36950004    -0.78020
C275        C  0.69531685  0.69467292  0.38315869     1.02600
O276        O  0.73973114  0.72003190  0.34134310    -0.85340
O277        O  0.74899130  0.68507883  0.28910873    -0.82400
C278        C  0.74261553  0.67090149  0.26447836     0.98140
O279        O  0.71704712  0.65810571  0.26083597    -0.82430
O280        O  0.68265756  0.70979312  0.25209585    -0.85040
C281        C  0.67134810  0.73575460  0.25870120     1.02610
O282        O  0.65746130  0.74002600  0.28383921    -0.77860
O283        O  0.70700980  0.75111227  0.31886727    -0.78000
C284        C  0.73323966  0.74601594  0.33010188     1.02570
Cr285      Cr  0.72515334  0.67871645  0.32787801     1.93740
Cr286      Cr  0.67687277  0.67152858  0.27680094     1.93210
Cr287      Cr  0.67044097  0.72414646  0.32479678     1.39100
O288        O  0.69032814  0.69100766  0.31038141    -1.23090
C289        C  0.76031419  0.74759391  0.48465026     0.00570
C290        C  0.75868620  0.74630206  0.51626967     0.00570
C291        C  0.75162515  0.98534220  0.75179995     0.00570
C292        C  0.75582426  0.01660766  0.75434566     0.00570
O293        O  0.66920236  0.13035253  0.79688959    -0.85340
O294        O  0.63094610  0.18072172  0.78153215    -0.82390
C295        C  0.61590795  0.19112632  0.80421178     0.98120
O296        O  0.62993149  0.20074467  0.82787592    -0.82420
O297        O  0.68005378  0.21665731  0.86552643    -0.85070
C298        C  0.69146777  0.19457555  0.88090586     1.02650
O299        O  0.70185741  0.17108853  0.86712694    -0.77830
O300        O  0.71554020  0.13282270  0.81701782    -0.78020
C301        C  0.69332881  0.11705304  0.80654222     1.02600
O302        O  0.71529419  0.15597579  0.75891170    -0.85340
O303        O  0.68170501  0.20709812  0.74916639    -0.82400
C304        C  0.66965955  0.23285108  0.75456553     0.98140
O305        O  0.65568609  0.23767731  0.77961991    -0.82430
O306        O  0.70600045  0.24912150  0.81482335    -0.85040
C307        C  0.73123776  0.24427334  0.82827680     1.02610
O308        O  0.73747026  0.21823514  0.83959911    -0.77860
O309        O  0.74690164  0.18261071  0.78793413    -0.78000
C310        C  0.74070392  0.16920541  0.76280958     1.02570
Cr311      Cr  0.67486831  0.16997739  0.77457728     1.93740
Cr312      Cr  0.66921461  0.22311718  0.82121268     1.93210
Cr313      Cr  0.72263467  0.17687112  0.82657864     1.39100
O314        O  0.68850573  0.18952355  0.80800805    -1.23090
O315        O  0.81822098  0.36960773  0.78698798    -0.85340
O316        O  0.86863493  0.32926754  0.79971652    -0.82390
C317        C  0.88158251  0.30537355  0.81062242     0.98120
O318        O  0.86534381  0.28397204  0.82201240    -0.82420
O319        O  0.82750083  0.29923489  0.87108406    -0.85070
C320        C  0.80368133  0.30747731  0.88541425     1.02650
O321        O  0.78111206  0.31859631  0.87060079    -0.77830
O322        O  0.79861584  0.36898467  0.83374244    -0.78020
C323        C  0.80709501  0.38374029  0.81005657     1.02600
O324        O  0.78939409  0.32054215  0.75360879    -0.85340
O325        O  0.84033289  0.28375353  0.76289748    -0.82400
C326        C  0.82965974  0.25735791  0.76902856     0.98140
O327        O  0.81587521  0.25210675  0.79409590    -0.82430
O328        O  0.77937570  0.26302721  0.84393184    -0.85040
C329        C  0.75421068  0.26856663  0.83037197     1.02610
O330        O  0.74917069  0.29445020  0.81831687    -0.77860
O331        O  0.76015772  0.34613393  0.78570959    -0.78000
C332        C  0.76414762  0.33355813  0.75990710     1.02570
Cr333      Cr  0.82775303  0.32509607  0.77869556     1.93740
Cr334      Cr  0.82123063  0.27750359  0.83147684     1.93210
Cr335      Cr  0.77519931  0.33074370  0.82636137     1.39100
O336        O  0.80852584  0.31139309  0.81238466    -1.23090
O337        O  0.87010121  0.20345491  0.67072514    -0.85340
O338        O  0.81971345  0.21947946  0.63517689    -0.82390
C339        C  0.80960948  0.19744487  0.61918476     0.98120
O340        O  0.80052668  0.17290668  0.63244995    -0.82420
O341        O  0.78737696  0.13272117  0.68279250    -0.85070
C342        C  0.81013673  0.11734448  0.69267711     1.02650
O343        O  0.83421957  0.13116867  0.70178976    -0.77830
O344        O  0.87253332  0.18221046  0.71667199    -0.78020
C345        C  0.88572119  0.19435061  0.69352013     1.02600
O346        O  0.84547200  0.23883113  0.72058858    -0.85340
O347        O  0.79346767  0.24941842  0.68649681    -0.82400
C348        C  0.76871534  0.24426108  0.67213876     0.98140
O349        O  0.76330852  0.21815400  0.66068962    -0.82430
O350        O  0.75575399  0.18177287  0.71216474    -0.85040
C351        C  0.76271818  0.16912153  0.73755487     1.02610
O352        O  0.78830878  0.15601467  0.74127707    -0.77860
O353        O  0.82172582  0.20669205  0.75138416    -0.78000
C354        C  0.83262727  0.23299201  0.74605680     1.02570
Cr355      Cr  0.83106833  0.22489416  0.67913567     1.93740
Cr356      Cr  0.77957622  0.17700444  0.67335781     1.93210
Cr357      Cr  0.82851181  0.17039595  0.72482412     1.39100
O358        O  0.81337953  0.19036297  0.69202514    -1.23090
O359        O  0.71740784  0.31776126  0.62759779    -0.85340
O360        O  0.70116726  0.36897162  0.66485391    -0.82390
C361        C  0.69370198  0.38387212  0.68879621     0.98120
O362        O  0.68417400  0.36968920  0.71260950    -0.82420
O363        O  0.63326367  0.32994500  0.70176929    -0.85070
C364        C  0.61926905  0.30580305  0.69316551     1.02650
O365        O  0.63430114  0.28381252  0.68120635    -0.77830
O366        O  0.67071435  0.29919523  0.63012437    -0.78020
C367        C  0.69398496  0.30644999  0.61427637     1.02600
O368        O  0.75114104  0.29468114  0.67966395    -0.85340
O369        O  0.74177608  0.34615732  0.71179421    -0.82400
C370        C  0.73865087  0.33332335  0.73777666     0.98140
O371        O  0.71362129  0.32029794  0.74495886    -0.82430
O372        O  0.66207329  0.28398073  0.73823406    -0.85040
C373        C  0.67244516  0.25755299  0.73193084     1.02610
O374        O  0.68560960  0.25235187  0.70664502    -0.77860
O375        O  0.72018000  0.26273487  0.65582448    -0.78000
C376        C  0.74562805  0.26843041  0.66895849     1.02570
Cr377      Cr  0.72495744  0.33070054  0.67172315     1.93740
Cr378      Cr  0.67450212  0.32528182  0.72156103     1.93210
Cr379      Cr  0.67851058  0.27740661  0.66947330     1.39100
O380        O  0.69221976  0.31139537  0.68738766    -1.23090
C381        C  0.75732573  0.48306631  0.74261247     0.00570
C382        C  0.75317002  0.51409020  0.74605929     0.00570
O383        O  0.79894468  0.62676806  0.83196144    -0.85340
O384        O  0.78689632  0.67744348  0.87221608    -0.82390
C385        C  0.81022181  0.68885617  0.88550518     0.98120
O386        O  0.83335250  0.69689283  0.86973920    -0.82420
O387        O  0.86993477  0.71087296  0.81705761    -0.85070
C388        C  0.88255137  0.68825923  0.80339903     1.02650
O389        O  0.86650369  0.66527886  0.79549083    -0.77830
O390        O  0.81467639  0.62954595  0.78383697    -0.78020
C391        C  0.80679779  0.61365877  0.80703172     1.02600
O392        O  0.75849713  0.65440478  0.78815975    -0.85340
O393        O  0.75234973  0.70465222  0.82334403    -0.82400
C394        C  0.75891535  0.73072575  0.83408822     0.98140
O395        O  0.78530584  0.73598869  0.84547613    -0.82430
O396        O  0.81924359  0.74556008  0.79379023    -0.85040
C397        C  0.83136838  0.74042759  0.76793470     1.02610
O398        O  0.84034517  0.71383980  0.76083729    -0.77860
O399        O  0.78631138  0.68094106  0.75511357    -0.78000
C400        C  0.76142033  0.66774833  0.76245078     1.02570
Cr401      Cr  0.77728524  0.66713944  0.82812865     1.93740
Cr402      Cr  0.82598614  0.71934102  0.83046083     1.93210
Cr403      Cr  0.82577129  0.67320497  0.77675974     1.39100
O404        O  0.81011794  0.68625509  0.81216117    -1.23090
O405        O  0.78775310  0.86801118  0.68749412    -0.85340
O406        O  0.80027841  0.83066177  0.63546801    -0.82390
C407        C  0.80946252  0.80750279  0.62039951     0.98120
O408        O  0.82197975  0.78499104  0.63437062    -0.82420
O409        O  0.87280712  0.79953142  0.67215320    -0.85070
C410        C  0.88771314  0.80787067  0.69580044     1.02650
O411        O  0.87333117  0.81748695  0.71923699    -0.77830
O412        O  0.83503548  0.86847088  0.70573658    -0.78020
C413        C  0.81075719  0.88275023  0.69813325     1.02600
O414        O  0.75701662  0.81599878  0.71461799    -0.85340
O415        O  0.76486379  0.78225436  0.66188519    -0.82400
C416        C  0.77124964  0.75558435  0.67188364     0.98140
O417        O  0.79684683  0.75027262  0.68449007    -0.82430
O418        O  0.84738254  0.76066072  0.71981689    -0.85040
C419        C  0.83421535  0.76528513  0.74545753     1.02610
O420        O  0.82278899  0.79103662  0.75169582    -0.77860
O421        O  0.78916287  0.84166120  0.74377644    -0.78000
C422        C  0.76383396  0.82829665  0.74003764     1.02570
Cr423      Cr  0.78033038  0.82353890  0.67605943     1.93740
Cr424      Cr  0.83359554  0.77677440  0.67858200     1.93210
Cr425      Cr  0.82940496  0.82838871  0.72707797     1.39100
O426        O  0.81478409  0.80994662  0.69339267    -1.23090
O427        O  0.71650281  0.86687788  0.81673954    -0.85340
O428        O  0.70357669  0.82828914  0.86944951    -0.82390
C429        C  0.69325566  0.80461570  0.88327873     0.98120
O430        O  0.68265584  0.78223301  0.86774712    -0.82420
O431        O  0.63246816  0.79446381  0.82997064    -0.85070
C432        C  0.61757894  0.80310914  0.80647687     1.02650
O433        O  0.63163548  0.81493349  0.78371672    -0.77830
O434        O  0.66920551  0.86558968  0.79888892    -0.78020
C435        C  0.69334734  0.88053481  0.80503701     1.02600
O436        O  0.74888733  0.81598536  0.79075997    -0.85340
O437        O  0.74093906  0.78151510  0.84330130    -0.82400
C438        C  0.73564662  0.75517511  0.83211917     0.98140
O439        O  0.71069171  0.74974131  0.81829081    -0.82430
O440        O  0.66009504  0.75828544  0.78209211    -0.85040
C441        C  0.67200840  0.76460277  0.75619917     1.02610
O442        O  0.68329558  0.79060115  0.75095290    -0.77860
O443        O  0.71626951  0.84046219  0.76093858    -0.78000
C444        C  0.74196712  0.82800939  0.76515596     1.02570
Cr445      Cr  0.72445492  0.82245256  0.82878868     1.93740
Cr446      Cr  0.67269665  0.77401162  0.82374098     1.93210
Cr447      Cr  0.67582302  0.82670624  0.77667214     1.39100
O448        O  0.69059836  0.80807504  0.81022840    -1.23090
O449        O  0.67439740  0.70255197  0.62878229    -0.85340
O450        O  0.63670867  0.71734381  0.67893737    -0.82390
C451        C  0.61994219  0.69564472  0.68886699     0.98120
O452        O  0.63238007  0.67108773  0.69896161    -0.82420
O453        O  0.68181775  0.63063458  0.71405566    -0.85070
C454        C  0.69250015  0.61506867  0.69189565     1.02650
O455        O  0.70293361  0.62871198  0.66811921    -0.77830
O456        O  0.71911152  0.67914399  0.62980592    -0.78020
C457        C  0.69728085  0.69142145  0.61469642     1.02600
O458        O  0.72280335  0.73696127  0.65618473    -0.85340
O459        O  0.68762217  0.74666714  0.70744361    -0.82400
C460        C  0.67320693  0.74139138  0.73216562     0.98140
O461        O  0.66012327  0.71594428  0.73673262    -0.82430
O462        O  0.71068860  0.67951720  0.74657677    -0.85040
C463        C  0.73618417  0.66695889  0.74041903     1.02610
O464        O  0.74063832  0.65395418  0.71493956    -0.77860
O465        O  0.75264888  0.70482959  0.68101938    -0.78000
C466        C  0.74798945  0.73107503  0.66940087     1.02570
Cr467      Cr  0.68105105  0.72284059  0.66918149     1.93740
Cr468      Cr  0.67275472  0.67492897  0.72110109     1.93210
Cr469      Cr  0.72587813  0.66815122  0.67408211     1.39100
O470        O  0.69269469  0.68810682  0.68758930    -1.23090
C471        C  0.51629453  0.74724243  0.74764614     0.00570
C472        C  0.48489292  0.74873527  0.74541953     0.00570
O473        O  0.12898916  0.71526628  0.81662408    -0.85340
O474        O  0.16569412  0.69970063  0.86759370    -0.82390
C475        C  0.18932089  0.69199892  0.88284949     0.98120
O476        O  0.21307068  0.68189418  0.86909108    -0.82420
O477        O  0.20209947  0.63168305  0.82919705    -0.85070
C478        C  0.19364342  0.61734673  0.80523507     1.02650
O479        O  0.18158623  0.63190976  0.78285859    -0.77830
O480        O  0.13003876  0.66840377  0.79848348    -0.78020
C481        C  0.11484045  0.69173020  0.80691209     1.02600
O482        O  0.18001379  0.74864053  0.79222592    -0.85340
O483        O  0.21246680  0.74001171  0.84462789    -0.82400
C484        C  0.23882518  0.73641997  0.83308179     0.98140
O485        O  0.24591543  0.71149199  0.81993823    -0.82430
O486        O  0.23847312  0.66069621  0.78266001    -0.85040
C487        C  0.23180545  0.67118057  0.75613626     1.02610
O488        O  0.20611048  0.68343440  0.75085975    -0.77860
O489        O  0.15521972  0.71751823  0.76109147    -0.78000
C490        C  0.16830830  0.74306279  0.76625670     1.02570
Cr491      Cr  0.17263020  0.72307022  0.82900938     1.93740
Cr492      Cr  0.22204359  0.67257561  0.82437656     1.93210
Cr493      Cr  0.16938276  0.67611076  0.77633929     1.39100
O494        O  0.18790378  0.69020282  0.81014734    -1.23090
O495        O  0.20219101  0.83592896  0.63190270    -0.85340
O496        O  0.21511893  0.87259498  0.68436723    -0.82390
C497        C  0.19168253  0.88565844  0.69569955     0.98120
O498        O  0.16829484  0.86984306  0.70289731    -0.82420
O499        O  0.13146823  0.81668797  0.71492417    -0.85070
C500        C  0.11854881  0.80415941  0.69178027     1.02650
O501        O  0.13425566  0.79754760  0.66813753    -0.77830
O502        O  0.18584104  0.78803222  0.63062904    -0.78020
C503        C  0.19495186  0.81213651  0.61673742     1.02600
O504        O  0.24243281  0.79002192  0.65627621    -0.85340
O505        O  0.24878958  0.82164728  0.70866969    -0.82400
C506        C  0.24234086  0.83152944  0.73510047     0.98140
O507        O  0.21633477  0.84354533  0.74057429    -0.82430
O508        O  0.18237943  0.79200092  0.74808490    -0.85040
C509        C  0.17051494  0.76632417  0.74192927     1.02610
O510        O  0.16117483  0.76029760  0.71499458    -0.77860
O511        O  0.21422442  0.75590326  0.68076172    -0.78000
C512        C  0.23930865  0.76376842  0.66832386     1.02570
Cr513      Cr  0.22409630  0.82920834  0.67153158     1.93740
Cr514      Cr  0.17549887  0.82958504  0.72356002     1.93210
Cr515      Cr  0.17498220  0.77828386  0.67452272     1.39100
O516        O  0.19104985  0.81269454  0.68956417    -1.23090
O517        O  0.28849670  0.81624112  0.87098925    -0.85340
O518        O  0.29873327  0.86730064  0.83089540    -0.82390
C519        C  0.30759334  0.88064893  0.80637401     0.98120
O520        O  0.31773150  0.86477520  0.78417281    -0.82420
O521        O  0.36841009  0.82851581  0.79761476    -0.85070
C522        C  0.38409311  0.80519753  0.80480043     1.02650
O523        O  0.37088024  0.78183119  0.81644227    -0.77830
O524        O  0.33514550  0.79678927  0.86866786    -0.78020
C525        C  0.31233834  0.80574014  0.88436114     1.02600
O526        O  0.25372268  0.78765247  0.82259846    -0.85340
O527        O  0.26014269  0.83899715  0.78609284    -0.82400
C528        C  0.26540995  0.82841165  0.75946331     0.98140
O529        O  0.29029599  0.81473026  0.75350675    -0.82430
O530        O  0.34204833  0.78003056  0.76138201    -0.85040
C531        C  0.32988545  0.75420384  0.76702899     1.02610
O532        O  0.31865798  0.74853954  0.79320106    -0.77860
O533        O  0.28717415  0.75768795  0.84588948    -0.78000
C534        C  0.26092518  0.76189448  0.83411626     1.02570
Cr535      Cr  0.27816673  0.82614090  0.82686135     1.93740
Cr536      Cr  0.32850437  0.82114039  0.77709049     1.93210
Cr537      Cr  0.32706619  0.77417124  0.82989448     1.39100
O538        O  0.31145547  0.80754376  0.81161670    -1.23090
O539        O  0.29739428  0.66942342  0.62943083    -0.85340
O540        O  0.28107110  0.63162749  0.67920553    -0.82390
C541        C  0.30376158  0.61611530  0.68883766     0.98120
O542        O  0.32743147  0.62981847  0.69886183    -0.82420
O543        O  0.36498889  0.67925786  0.71588638    -0.85070
C544        C  0.38140588  0.68985904  0.69428454     1.02650
O545        O  0.36861018  0.70063721  0.67014746    -0.77830
O546        O  0.31827681  0.71554974  0.62965415    -0.78020
C547        C  0.30630513  0.69322830  0.61501408     1.02600
O548        O  0.25991945  0.71638472  0.65435216    -0.85340
O549        O  0.24937340  0.68258556  0.70582439    -0.82400
C550        C  0.25450954  0.66955099  0.73134893     0.98140
O551        O  0.27946541  0.65545144  0.73593098    -0.82430
O552        O  0.31483118  0.70587646  0.74742481    -0.85040
C553        C  0.32842310  0.73109934  0.74262322     1.02610
O554        O  0.34043244  0.73710246  0.71668588    -0.77860
O555        O  0.29017348  0.74778637  0.67976991    -0.78000
C556        C  0.26457952  0.74181399  0.66723785     1.02570
Cr557      Cr  0.27478506  0.67566840  0.66854566     1.93740
Cr558      Cr  0.32096768  0.66899331  0.72157168     1.93210
Cr559      Cr  0.32805613  0.72235695  0.67469091     1.39100
O560        O  0.30840269  0.68875002  0.68784992    -1.23090
C561        C  0.98517920  0.73460145  0.73372701     0.00570
C562        C  0.01660739  0.73203980  0.73593460     0.00570
C563        C  0.24327934  0.75007968  0.51503785     0.00570
C564        C  0.24710539  0.75177475  0.48367529     0.00570
C565        C  0.01593766  0.74381732  0.25259447     0.00570
C566        C  0.98482859  0.74591940  0.24879641     0.00570
O567        O  0.31606567  0.78640326  0.12965501    -0.85340
O568        O  0.36672208  0.79855577  0.16811900    -0.82390
C569        C  0.38100190  0.80818315  0.19168529     0.98120
O570        O  0.36638724  0.82084069  0.21363104    -0.82420
O571        O  0.32972361  0.87155373  0.19761961    -0.85070
C572        C  0.30652669  0.88687669  0.18903019     1.02650
O573        O  0.28334835  0.87311680  0.17790195    -0.77830
O574        O  0.29852563  0.83380150  0.12759285    -0.78020
C575        C  0.30688693  0.80937393  0.11401032     1.02600
O576        O  0.28652561  0.75669087  0.18063570    -0.85340
O577        O  0.33857051  0.76395536  0.21575265    -0.82400
C578        C  0.32812747  0.77062477  0.24202639     0.98140
O579        O  0.31532679  0.79615357  0.24678761    -0.82430
O580        O  0.28079040  0.84687749  0.23527549    -0.85040
C581        C  0.25518474  0.83399466  0.22987615     1.02610
O582        O  0.24954033  0.82278793  0.20375404    -0.77860
O583        O  0.25865930  0.78878191  0.15320054    -0.78000
C584        C  0.26162131  0.76359165  0.16728315     1.02570
Cr585      Cr  0.32567384  0.77927787  0.17419093     1.93740
Cr586      Cr  0.32223721  0.83272005  0.22043966     1.93210
Cr587      Cr  0.27551065  0.82894064  0.16696060     1.39100
O588        O  0.30832290  0.81399944  0.18683012    -1.23090
O589        O  0.12881161  0.83045342  0.29362579    -0.85340
O590        O  0.17976551  0.86780971  0.27924876    -0.82390
C591        C  0.19051899  0.88391211  0.30106712     0.98120
O592        O  0.19980333  0.87087797  0.32568113    -0.82420
O593        O  0.21309059  0.82102482  0.36686650    -0.85070
C594        C  0.18994491  0.81034539  0.38123230     1.02650
O595        O  0.16615375  0.80254332  0.36636176    -0.77830
O596        O  0.12927948  0.78535208  0.31631599    -0.78020
C597        C  0.11446898  0.80747546  0.30436151     1.02600
O598        O  0.15633784  0.78160719  0.25959151    -0.85340
O599        O  0.20727623  0.81709824  0.24918994    -0.82400
C600        C  0.23205443  0.83135640  0.25430941     0.98140
O601        O  0.23748893  0.84282830  0.28050678    -0.82430
O602        O  0.24543036  0.79177946  0.31751079    -0.85040
C603        C  0.23855868  0.76660402  0.33052660     1.02610
O604        O  0.21300699  0.76305397  0.34361153    -0.77860
O605        O  0.18030942  0.75146303  0.29237394    -0.78000
C606        C  0.16896116  0.75618105  0.26606107     1.02570
Cr607      Cr  0.16930247  0.82351866  0.27346101     1.93740
Cr608      Cr  0.22105274  0.83030092  0.32193914     1.93210
Cr609      Cr  0.17292068  0.77847921  0.32825505     1.39100
O610        O  0.18739377  0.81124176  0.30820318    -1.23090
O611        O  0.33182556  0.70566787  0.36915534    -0.85340
O612        O  0.36919323  0.72147965  0.31898754    -0.82390
C613        C  0.38482935  0.69938529  0.30842919     0.98120
O614        O  0.37120530  0.67545342  0.29893022    -0.82420
O615        O  0.32023770  0.63639627  0.28539544    -0.85070
C616        C  0.30725222  0.62217870  0.30757621     1.02650
O617        O  0.29730975  0.63692372  0.33065582    -0.77830
O618        O  0.28457818  0.68770612  0.36886292    -0.78020
C619        C  0.30784688  0.69760343  0.38362285     1.02600
O620        O  0.28551306  0.74446632  0.34436756    -0.85340
O621        O  0.31869922  0.75365191  0.29272606    -0.82400
C622        C  0.33039188  0.74791688  0.26680890     0.98140
O623        O  0.34360561  0.72245960  0.26171782    -0.82430
O624        O  0.29410677  0.68618862  0.25103349    -0.85040
C625        C  0.26856980  0.67351371  0.25614992     1.02610
O626        O  0.26180620  0.66370621  0.28279628    -0.77860
O627        O  0.25364724  0.71613475  0.31750881    -0.78000
C628        C  0.26024702  0.74117757  0.33071003     1.02570
Cr629      Cr  0.32561582  0.72834457  0.32993190     1.93740
Cr630      Cr  0.33094182  0.68089072  0.27735171     1.93210
Cr631      Cr  0.27718092  0.67736985  0.32418753     1.39100
O632        O  0.31164070  0.69495715  0.31081603    -1.23090
O633        O  0.21845995  0.63214571  0.17863761    -0.85340
O634        O  0.20222176  0.67032262  0.12842904    -0.82390
C635        C  0.19286874  0.69438582  0.11458835     0.98120
O636        O  0.18286573  0.71693099  0.13010190    -0.82420
O637        O  0.13285988  0.70201385  0.16921405    -0.85070
C638        C  0.11926659  0.69199823  0.19311338     1.02650
O639        O  0.13462427  0.67993345  0.21496417    -0.77830
O640        O  0.17344128  0.62958414  0.20106233    -0.78020
C641        C  0.19711584  0.61627159  0.19058689     1.02600
O642        O  0.25102972  0.68257455  0.20514027    -0.85340
O643        O  0.24023596  0.71652556  0.15381424    -0.82400
C644        C  0.23637317  0.74176942  0.16724591     0.98140
O645        O  0.21128760  0.74791324  0.18061243    -0.82430
O646        O  0.15961662  0.73825672  0.21602992    -0.85040
C647        C  0.17098241  0.73257478  0.24219952     1.02610
O648        O  0.18456791  0.70748029  0.24742615    -0.77860
O649        O  0.22060832  0.65748680  0.23682664    -0.78000
C650        C  0.24581574  0.67087696  0.23131881     1.02570
Cr651      Cr  0.22503777  0.67598088  0.16796627     1.93740
Cr652      Cr  0.17303592  0.72334440  0.17472172     1.93210
Cr653      Cr  0.17899950  0.67002955  0.22194389     1.39100
O654        O  0.19179501  0.68928292  0.18778601    -1.23090
C655        C  0.24845684  0.75350680  0.98183906     0.00570
C656        C  0.25277077  0.74784459  0.01284754     0.00570
C657        C  0.25681754  0.51691390  0.24943922     0.00570
C658        C  0.25267746  0.48564828  0.25215174     0.00570
C659        C  0.23997938  0.25039529  0.98520602     0.00570
C660        C  0.24559040  0.25668056  0.01584145     0.00570
C661        C  0.25617866  0.98644354  0.25470649     0.00570
C662        C  0.25407480  0.01774370  0.25241137     0.00570
O663        O  0.36908154  0.29644874  0.32898878    -0.85340
O664        O  0.31946794  0.28111887  0.36632793    -0.82390
C665        C  0.30925246  0.30282222  0.38285086     0.98120
O666        O  0.29992301  0.32746141  0.37013760    -0.82420
O667        O  0.28672131  0.36904243  0.32054669    -0.85070
C668        C  0.30985773  0.38300650  0.30929155     1.02650
O669        O  0.33327090  0.36787560  0.30105670    -0.77830
O670        O  0.36987438  0.31750434  0.28304699    -0.78020
C671        C  0.38392327  0.30517370  0.30555813     1.02600
O672        O  0.34196360  0.26176784  0.27977612    -0.85340
O673        O  0.29114366  0.25164461  0.31544751    -0.82400
C674        C  0.26631975  0.25694124  0.32955427     0.98140
O675        O  0.26137900  0.28285569  0.34181114    -0.82430
O676        O  0.25278655  0.32063341  0.29193243    -0.85040
C677        C  0.25924206  0.33343415  0.26658595     1.02610
O678        O  0.28520190  0.34561402  0.26208142    -0.77860
O679        O  0.31785055  0.29438635  0.24962143    -0.78000
C680        C  0.32954038  0.26825443  0.25417723     1.02570
Cr681      Cr  0.32921723  0.27565491  0.32190711     1.93740
Cr682      Cr  0.27814231  0.32427564  0.32972969     1.93210
Cr683      Cr  0.32576182  0.33007996  0.27683549     1.39100
O684        O  0.31124151  0.31024996  0.30981733    -1.23090
O685        O  0.18285906  0.13099899  0.28443846    -0.85340
O686        O  0.13122664  0.16925900  0.29530057    -0.82390
C687        C  0.11683437  0.19239576  0.30568085     0.98120
O688        O  0.13162347  0.21443617  0.31799173    -0.82420
O689        O  0.16835324  0.20143314  0.36940077    -0.85070
C690        C  0.19145696  0.19210762  0.38444499     1.02650
O691        O  0.21459711  0.18149373  0.37036056    -0.77830
O692        O  0.19957614  0.13120048  0.33237579    -0.78020
C693        C  0.19219797  0.11661823  0.30820085     1.02600
O694        O  0.21193237  0.18190465  0.25380579    -0.85340
O695        O  0.15895937  0.21628344  0.25980871    -0.82400
C696        C  0.16884753  0.24274524  0.26648618     0.98140
O697        O  0.18168014  0.24782223  0.29203912    -0.82430
O698        O  0.21672810  0.23860695  0.34314872    -0.85040
C699        C  0.24269702  0.23292976  0.33116731     1.02610
O700        O  0.24840762  0.20686614  0.32001600    -0.77860
O701        O  0.24002110  0.15574395  0.28672658    -0.78000
C702        C  0.23710998  0.16929512  0.26120074     1.02570
Cr703      Cr  0.17255007  0.17535407  0.27631962     1.93740
Cr704      Cr  0.17545466  0.22263772  0.32939570     1.93210
Cr705      Cr  0.22266588  0.17009607  0.32655043     1.39100
O706        O  0.18966541  0.18901550  0.31112682    -1.23090
O707        O  0.20194372  0.33616486  0.13702708    -0.85340
O708        O  0.21303184  0.37211194  0.18949750    -0.82390
C709        C  0.18927923  0.38606915  0.19929798     0.98120
O710        O  0.16511099  0.37116526  0.20571667    -0.82420
O711        O  0.12710904  0.31956260  0.21728731    -0.85070
C712        C  0.11444817  0.30976652  0.19283159     1.02650
O713        O  0.13070837  0.30367667  0.16962088    -0.77830
O714        O  0.18225182  0.28976363  0.13377221    -0.78020
C715        C  0.19407061  0.31329933  0.12096159     1.02600
O716        O  0.23779043  0.28709309  0.16312123    -0.85340
O717        O  0.24422187  0.32090128  0.21627121    -0.82400
C718        C  0.23697750  0.33320270  0.24156236     0.98140
O719        O  0.21077160  0.34509092  0.24546917    -0.82430
O720        O  0.17737269  0.29360048  0.25112474    -0.85040
C721        C  0.16635132  0.26781962  0.24410182     1.02610
O722        O  0.15393501  0.26356004  0.21796402    -0.77860
O723        O  0.20537974  0.25462379  0.18450395    -0.78000
C724        C  0.23107543  0.26017289  0.17242323     1.02570
Cr725      Cr  0.22150308  0.32821077  0.17749404     1.93740
Cr726      Cr  0.17089180  0.33125520  0.22701376     1.93210
Cr727      Cr  0.16907423  0.28069935  0.17744736     1.39100
O728        O  0.18703015  0.31361486  0.19371068    -1.23090
O729        O  0.31683122  0.13271516  0.21265341    -0.85340
O730        O  0.36721001  0.17242116  0.19964230    -0.82390
C731        C  0.38026435  0.19558828  0.18738021     0.98120
O732        O  0.36411059  0.21702451  0.17586260    -0.82420
O733        O  0.32472358  0.20291406  0.12678464    -0.85070
C734        C  0.30052226  0.19324554  0.11374199     1.02650
O735        O  0.27853655  0.18325555  0.12991515    -0.77830
O736        O  0.29527453  0.13239170  0.16656827    -0.78020
C737        C  0.30569381  0.11804557  0.18993016     1.02600
O738        O  0.28795345  0.18221783  0.24564232    -0.85340
O739        O  0.33923425  0.21836814  0.23611102    -0.82400
C740        C  0.32817608  0.24459251  0.23021804     0.98140
O741        O  0.31538895  0.25012123  0.20466498    -0.82430
O742        O  0.27837189  0.24008145  0.15524109    -0.85040
C743        C  0.25354342  0.23521211  0.16953962     1.02610
O744        O  0.24823914  0.20925973  0.18167114    -0.77860
O745        O  0.25855663  0.15641325  0.21392943    -0.78000
C746        C  0.26261253  0.16926737  0.23941949     1.02570
Cr747      Cr  0.32632897  0.17718274  0.22055170     1.93740
Cr748      Cr  0.31995189  0.22448462  0.16710669     1.93210
Cr749      Cr  0.27316288  0.17178309  0.17367604     1.39100
O750        O  0.30713000  0.19067868  0.18669188    -1.23090
C751        C  0.98390234  0.24323376  0.24255416     0.00570
C752        C  0.01476828  0.24808125  0.24725771     0.00570
C753        C  0.05318439  0.25178515  0.20550283    -0.12260
C754        C  0.03367021  0.26764133  0.22584857     0.04750
C755        C  0.03626749  0.30027820  0.22754263    -0.07550
C756        C  0.06109793  0.31496092  0.21254971    -0.08290
C757        C  0.08245810  0.29823882  0.19501161    -0.02840
C758        C  0.07668929  0.26673334  0.18925190     0.03970
N759        N  0.09635092  0.24885103  0.16953075     0.66480
H760        H  0.05076113  0.22709098  0.20290009     0.15380
H761        H  0.06525739  0.33922936  0.21675605     0.15090
N762        N  0.01524860  0.31902037  0.24488497     0.74180
O763        O  0.10470222  0.22214868  0.17768346    -0.39270
O764        O  0.10103586  0.25748687  0.14203665    -0.39210
O765        O  0.00751009  0.31161501  0.27194093    -0.39910
O766        O  0.00780704  0.34533835  0.23480487    -0.39980
C767        C  0.07050126  0.22482462  0.31126694    -0.12260
C768        C  0.08334000  0.19776494  0.29903350     0.04750
C769        C  0.06749639  0.18316206  0.27439114    -0.07550
C770        C  0.04268115  0.19862040  0.25984905    -0.08290
C771        C  0.03338055  0.22828188  0.26912574    -0.02840
C772        C  0.04690206  0.24069401  0.29606256     0.03970
N773        N  0.03986204  0.27102010  0.30653647     0.66480
H774        H  0.08143172  0.23608621  0.33074647     0.15380
H775        H  0.03222808  0.18842818  0.23966095     0.15090
N776        N  0.07718482  0.15373714  0.26278005     0.74180
O777        O  0.05989206  0.29190837  0.30321487    -0.39270
O778        O  0.01923202  0.27443756  0.32676480    -0.39210
O779        O  0.08367517  0.13221059  0.28138488    -0.39910
O780        O  0.07488047  0.14776427  0.23432299    -0.39980
C781        C  0.20354425  0.03927680  0.27062542    -0.12260
C782        C  0.23558254  0.03651350  0.27464431     0.04750
C783        C  0.25054432  0.05621676  0.29594200    -0.07550
C784        C  0.23364266  0.07904411  0.31110800    -0.08290
C785        C  0.20264124  0.08448854  0.30395742    -0.02840
C786        C  0.18692018  0.06358899  0.28438962     0.03970
N787        N  0.15475193  0.06769654  0.27711986     0.66480
H788        H  0.19183019  0.02375536  0.25502591     0.15380
H789        H  0.24584182  0.09497315  0.32601598     0.15090
N790        N  0.28316713  0.05448901  0.30135199     0.74180
O791        O  0.14333239  0.05568182  0.25314585    -0.39270
O792        O  0.13716796  0.08181112  0.29550415    -0.39210
O793        O  0.29585618  0.02874306  0.30575286    -0.39910
O794        O  0.29859085  0.07874352  0.30597611    -0.39980
C795        C  0.26803929  0.07582876  0.18822781    -0.12260
C796        C  0.29832554  0.08496805  0.19491953     0.04750
C797        C  0.31627209  0.06642108  0.21508687    -0.07550
C798        C  0.30209642  0.04181389  0.23105249    -0.08290
C799        C  0.27048206  0.03575073  0.22777561    -0.02840
C800        C  0.25366972  0.05183458  0.20468898     0.03970
N801        N  0.22152427  0.04566543  0.19911583     0.66480
H802        H  0.25429956  0.08965237  0.17251010     0.15380
H803        H  0.31524750  0.02880609  0.24783891     0.15090
N804        N  0.34822339  0.07345510  0.22088565     0.74180
O805        O  0.20376987  0.06704034  0.19034770    -0.39270
O806        O  0.21135326  0.01842575  0.19990114    -0.39210
O807        O  0.36415845  0.08721450  0.20068576    -0.39910
O808        O  0.36128771  0.06396912  0.24521932    -0.39980
C809        C  0.24988240  0.21065914  0.04810094    -0.12260
C810        C  0.26539385  0.23526806  0.03418584     0.04750
C811        C  0.29728437  0.23982662  0.04090407    -0.07550
C812        C  0.31072930  0.22224461  0.06491422    -0.08290
C813        C  0.29385341  0.19943280  0.08060969    -0.02840
C814        C  0.26464876  0.19087951  0.06881297     0.03970
N815        N  0.24898869  0.16348272  0.07936190     0.66480
H816        H  0.22566879  0.20717859  0.04309239     0.15380
H817        H  0.33352996  0.22828178  0.07314509     0.15090
N818        N  0.31622198  0.26233926  0.02517201     0.74180
O819        O  0.21994419  0.16170012  0.07833772    -0.39270
O820        O  0.26429995  0.13973485  0.08646537    -0.39210
O821        O  0.30476703  0.28580427  0.01233288    -0.39910
O822        O  0.34516263  0.25919979  0.02487511    -0.39980
C823        C  0.24735548  0.29932579  0.05463283    -0.12260
C824        C  0.22905583  0.28066886  0.03527260     0.04750
C825        C  0.19686362  0.28028420  0.04127255    -0.07550
C826        C  0.18491934  0.29505330  0.06755054    -0.08290
C827        C  0.20405800  0.31062451  0.08832948    -0.02840
C828        C  0.23545573  0.31433193  0.08066858     0.03970
N829        N  0.25649501  0.32967533  0.10115263     0.66480
H830        H  0.27183878  0.30050530  0.05144614     0.15380
H831        H  0.16078460  0.29189087  0.07324315     0.15090
N832        N  0.17592417  0.26253053  0.02337308     0.74180
O833        O  0.28165736  0.31696275  0.10847826    -0.39270
O834        O  0.25215786  0.35755580  0.10816077    -0.39210
O835        O  0.16535471  0.23804181  0.03514140    -0.39910
O836        O  0.15994673  0.27642797  0.00331033    -0.39980
C837        C  0.21100877  0.43781630  0.19036832    -0.12260
C838        C  0.19326425  0.41847472  0.20921672     0.04750
C839        C  0.18978109  0.42623681  0.24074441    -0.07550
C840        C  0.20712594  0.45063008  0.25309586    -0.08290
C841        C  0.22797293  0.46783700  0.23505688    -0.02840
C842        C  0.22844568  0.46208493  0.20277648     0.03970
N843        N  0.24890720  0.47774258  0.18236190     0.66480
H844        H  0.21414712  0.43190542  0.16624055     0.15380
H845        H  0.20590069  0.45446416  0.27767031     0.15090
N846        N  0.17194884  0.40732246  0.26139418     0.74180
O847        O  0.27393563  0.46467460  0.17543742    -0.39270
O848        O  0.23751489  0.49674325  0.16338086    -0.39210
O849        O  0.18246165  0.40033234  0.28773343    -0.39910
O850        O  0.14418903  0.40119532  0.25516212    -0.39980
C851        C  0.29359801  0.44666313  0.25357194    -0.12260
C852        C  0.27387295  0.46562083  0.27071310     0.04750
C853        C  0.27164282  0.46077148  0.30314821    -0.07550
C854        C  0.28720890  0.43536776  0.31650773    -0.08290
C855        C  0.30539345  0.41532828  0.29866603    -0.02840
C856        C  0.31023424  0.42258870  0.26715757     0.03970
N857        N  0.32960670  0.40401902  0.24782184     0.66480
H858        H  0.29574285  0.45037941  0.22892599     0.15380
H859        H  0.28313744  0.42973210  0.34058146     0.15090
N860        N  0.25278241  0.47980217  0.32272568     0.74180
O861        O  0.32039874  0.39604798  0.22132375    -0.39270
O862        O  0.35764793  0.40042703  0.25475816    -0.39210
O863        O  0.22788939  0.49128191  0.31301666    -0.39910
O864        O  0.25971779  0.48305227  0.35088211    -0.39980
C865        C  0.23323799  0.57297237  0.18628987    -0.12260
C866        C  0.20449277  0.58322630  0.19722051     0.04750
C867        C  0.19000317  0.56598798  0.22101376    -0.07550
C868        C  0.20657758  0.54206115  0.23577976    -0.08290
C869        C  0.23736616  0.53554476  0.22782929    -0.02840
C870        C  0.25066649  0.55110018  0.20236692     0.03970
N871        N  0.28233657  0.54667758  0.19349156     0.66480
H872        H  0.24409075  0.58478899  0.16705739     0.15380
H873        H  0.19616837  0.52984698  0.25500808     0.15090
N874        N  0.15942181  0.57328055  0.23140825     0.74180
O875        O  0.29755116  0.56871383  0.18194095    -0.39270
O876        O  0.29443403  0.52030367  0.19435373    -0.39210
O877        O  0.13854597  0.57946490  0.21200614    -0.39910
O878        O  0.15216489  0.56953804  0.25943367    -0.39980
C879        C  0.20346476  0.73852000  0.04026467    -0.12260
C880        C  0.23205889  0.72678085  0.03086055     0.04750
C881        C  0.24263700  0.69858801  0.04403242    -0.07550
C882        C  0.22600144  0.68544428  0.06880854    -0.08290
C883        C  0.19985727  0.69985529  0.08122703    -0.02840
C884        C  0.18718525  0.72550044  0.06520569     0.03970
N885        N  0.15902530  0.73983364  0.07527409     0.66480
H886        H  0.19484884  0.75939381  0.02949148     0.15380
H887        H  0.23528609  0.66537811  0.08048272     0.15090
N888        N  0.27061174  0.68362794  0.03387604     0.74180
O889        O  0.15498303  0.76845268  0.07164485    -0.39270
O890        O  0.13723743  0.72364234  0.08588064    -0.39210
O891        O  0.28205142  0.68928353  0.00767547    -0.39910
O892        O  0.28249990  0.66234647  0.04991586    -0.39980
C893        C  0.31757780  0.57141641  0.28316618    -0.12260
C894        C  0.29908823  0.58906750  0.30294053     0.04750
C895        C  0.26926347  0.57794702  0.31014982    -0.07550
C896        C  0.25751231  0.55225878  0.29431177    -0.08290
C897        C  0.27496578  0.53595969  0.27235728    -0.02840
C898        C  0.30624788  0.54493341  0.26811791     0.03970
N899        N  0.32659664  0.52889737  0.24763653     0.66480
H900        H  0.34065657  0.57944297  0.27791786     0.15380
H901        H  0.23349004  0.54640462  0.29760926     0.15090
N902        N  0.24936559  0.59416758  0.33099517     0.74180
O903        O  0.34606987  0.54378213  0.23182243    -0.39270
O904        O  0.32951418  0.50011247  0.24989021    -0.39210
O905        O  0.22166891  0.59930564  0.32360658    -0.39910
O906        O  0.25778897  0.59856898  0.35856770    -0.39980
C907        C  0.21853256  0.93281496  0.31363726    -0.12260
C908        C  0.19787089  0.91695548  0.29429220     0.04750
C909        C  0.19121572  0.92991195  0.26477494    -0.07550
C910        C  0.20903192  0.95454663  0.25370054    -0.08290
C911        C  0.23235634  0.96788076  0.27162648    -0.02840
C912        C  0.23531970  0.95847097  0.30279332     0.03970
N913        N  0.25485540  0.97462850  0.32383298     0.66480
H914        H  0.22309268  0.92422374  0.33673050     0.15380
H915        H  0.20559479  0.96247856  0.23018339     0.15090
N916        N  0.16793881  0.91715671  0.24488795     0.74180
O917        O  0.24525715  0.99967824  0.33496194    -0.39270
O918        O  0.27542996  0.95997480  0.33833960    -0.39210
O919        O  0.14149125  0.91106615  0.25544263    -0.39910
O920        O  0.17273433  0.91478888  0.21620096    -0.39980
C921        C  0.26804196  0.96328861  0.20287936    -0.12260
C922        C  0.27673835  0.96805240  0.23382895     0.04750
C923        C  0.30113670  0.95027575  0.24607281    -0.07550
C924        C  0.31421935  0.92667563  0.22844283    -0.08290
C925        C  0.30281267  0.91934282  0.19904971    -0.02840
C926        C  0.28080428  0.93918218  0.18522311     0.03970
N927        N  0.27025579  0.93423733  0.15403181     0.66480
H928        H  0.24980584  0.97706535  0.19304052     0.15380
H929        H  0.33129250  0.91192747  0.23925427     0.15090
N930        N  0.31171104  0.95445381  0.27709011     0.74180
O931        O  0.24448404  0.94461089  0.14527057    -0.39270
O932        O  0.28775432  0.92183596  0.13435852    -0.39210
O933        O  0.31530116  0.93124359  0.29441282    -0.39910
O934        O  0.32455345  0.97947445  0.28432511    -0.39980
C935        C  0.25743240  0.79487797  0.04553946    -0.12260
C936        C  0.27207921  0.76909077  0.03246990     0.04750
C937        C  0.30233042  0.76198058  0.04255942    -0.07550
C938        C  0.31576623  0.77918599  0.06652765    -0.08290
C939        C  0.30011839  0.80369408  0.08077401    -0.02840
C940        C  0.27183530  0.81341791  0.06788611     0.03970
N941        N  0.25659481  0.84080886  0.07852621     0.66480
H942        H  0.23384255  0.79989517  0.03947550     0.15380
H943        H  0.33769421  0.77165435  0.07591519     0.15090
N944        N  0.31893203  0.73603224  0.03091716     0.74180
O945        O  0.22752632  0.84208606  0.07922558    -0.39270
O946        O  0.27185451  0.86538111  0.08184251    -0.39210
O947        O  0.32744073  0.73586505  0.00307878    -0.39910
O948        O  0.33117866  0.71725968  0.04961597    -0.39980
C949        C  0.04668685  0.73857290  0.20457699    -0.12260
C950        C  0.03535405  0.72458903  0.23162484     0.04750
C951        C  0.04721545  0.69536330  0.24063259    -0.07550
C952        C  0.07197086  0.68289303  0.22375352    -0.08290
C953        C  0.08633951  0.69923909  0.19960100    -0.02840
C954        C  0.07229322  0.72666437  0.18886802     0.03970
N955        N  0.08574809  0.74488121  0.16473385     0.66480
H956        H  0.03766720  0.76070115  0.19737086     0.15380
H957        H  0.08215006  0.66138679  0.23140545     0.15090
N958        N  0.03618657  0.67877578  0.26753206     0.74180
O959        O  0.06997795  0.75111170  0.14099817    -0.39270
O960        O  0.10957640  0.76063262  0.17034515    -0.39210
O961        O  0.01151190  0.68623480  0.28090985    -0.39910
O962        O  0.05062003  0.65548835  0.27749122    -0.39980
C963        C  0.04292354  0.79432063  0.25800168    -0.12260
C964        C  0.03318671  0.76666012  0.27202325     0.04750
C965        C  0.04448048  0.75956394  0.30179186    -0.07550
C966        C  0.06742219  0.77788769  0.31503107    -0.08290
C967        C  0.08103905  0.80228129  0.29858124    -0.02840
C968        C  0.06656699  0.81245334  0.27103584     0.03970
N969        N  0.07678171  0.83971946  0.25510434     0.66480
H970        H  0.03334738  0.80086342  0.23581989     0.15380
H971        H  0.07728105  0.77053950  0.33689203     0.15090
N972        N  0.03459592  0.73295206  0.31845802     0.74180
O973        O  0.07568501  0.84110507  0.22596418    -0.39270
O974        O  0.08246783  0.86396029  0.27014766    -0.39210
O975        O  0.05413038  0.71228572  0.32471380    -0.39910
O976        O  0.01112579  0.73531641  0.33540048    -0.39980
C977        C  0.29436373  0.74903487  0.45127514    -0.12260
C978        C  0.27058486  0.73300166  0.46639806     0.04750
C979        C  0.26620382  0.70157072  0.45901174    -0.07550
C980        C  0.28229247  0.68851893  0.43410961    -0.08290
C981        C  0.30334098  0.70591915  0.41659827    -0.02840
C982        C  0.31114740  0.73582261  0.42698148     0.03970
N983        N  0.33343367  0.75442910  0.41098274     0.66480
H984        H  0.29884927  0.77278785  0.45698289     0.15380
H985        H  0.27632027  0.66540219  0.42676992     0.15090
N986        N  0.24436118  0.68289806  0.47509815     0.74180
O987        O  0.32749231  0.78224343  0.40467093    -0.39270
O988        O  0.36056847  0.74459451  0.40738563    -0.39210
O989        O  0.21922885  0.67625946  0.46199947    -0.39910
O990        O  0.25402909  0.66557732  0.49649454    -0.39980
C991        C  0.20557491  0.75454390  0.44503463    -0.12260
C992        C  0.22668491  0.77088468  0.46328878     0.04750
C993        C  0.23009619  0.80310939  0.45816739    -0.07550
C994        C  0.21434047  0.81690691  0.43305493    -0.08290
C995        C  0.19476663  0.79978911  0.41362639    -0.02840
C996        C  0.18874471  0.76867450  0.42132200     0.03970
N997        N  0.16763734  0.75026435  0.40366576     0.66480
H998        H  0.20212616  0.73022743  0.44926996     0.15380
H999        H  0.21924100  0.84070432  0.42714120     0.15090
N1000       N  0.25010427  0.82205712  0.47673742     0.74180
O1001       O  0.17505852  0.72330882  0.39565168    -0.39270
O1002       O  0.13992997  0.75870825  0.40086989    -0.39210
O1003       O  0.27452585  0.81138946  0.48838054    -0.39910
O1004       O  0.24449944  0.85045696  0.47969886    -0.39980
C1005       C  0.26415440  0.69168464  0.57726370    -0.12260
C1006       C  0.29514635  0.69901559  0.58300367     0.04750
C1007       C  0.31064886  0.71904763  0.56222795    -0.07550
C1008       C  0.29378139  0.73335117  0.53815888    -0.08290
C1009       C  0.26193472  0.72828983  0.53452721    -0.02840
C1010       C  0.24725579  0.70643019  0.55387925     0.03970
N1011       N  0.21488084  0.69996930  0.55117016     0.66480
H1012       H  0.25204957  0.67639828  0.59298018     0.15380
H1013       H  0.30507416  0.75003713  0.52331730     0.15090
N1014       N  0.34299298  0.72577462  0.56586071     0.74180
O1015       O  0.20282243  0.69620538  0.52491805    -0.39270
O1016       O  0.19902841  0.69436734  0.57501055    -0.39210
O1017       O  0.36062574  0.70673259  0.57914953    -0.39910
O1018       O  0.35464180  0.74939366  0.55332435    -0.39980
C1019       C  0.29085250  0.81632859  0.93623432    -0.12260
C1020       C  0.30954546  0.79765408  0.91756770     0.04750
C1021       C  0.31412462  0.76665398  0.92643319    -0.07550
C1022       C  0.29407500  0.75339494  0.94810169    -0.08290
C1023       C  0.27235609  0.77112630  0.96415443    -0.02840
C1024       C  0.27268535  0.80370719  0.96016007     0.03970
N1025       N  0.25324248  0.82415399  0.97763792     0.66480
H1026       H  0.28778797  0.84032929  0.92991351     0.15380
H1027       H  0.29495634  0.72873790  0.95213427     0.15090
N1028       N  0.33732202  0.74790128  0.91203640     0.74180
O1029       O  0.26086933  0.85204479  0.98099979    -0.39270
O1030       O  0.22733786  0.81551660  0.98755774    -0.39210
O1031       O  0.36398019  0.75877259  0.90764586    -0.39910
O1032       O  0.33304538  0.71931182  0.90866596    -0.39980
C1033       C  0.18342571  0.79067703  0.56530758    -0.12260
C1034       C  0.20296022  0.80879728  0.58365113     0.04750
C1035       C  0.23386613  0.81286044  0.57420293    -0.07550
C1036       C  0.24533990  0.79523560  0.54964681    -0.08290
C1037       C  0.22663173  0.77457022  0.53306943    -0.02840
C1038       C  0.19466825  0.77376287  0.54003225     0.03970
N1039       N  0.17347118  0.75462000  0.52348698     0.66480
H1040       H  0.15964370  0.78756827  0.57234269     0.15380
H1041       H  0.26982499  0.79608111  0.54488753     0.15090
N1042       N  0.25482642  0.83180162  0.59150968     0.74180
O1043       O  0.15494651  0.73779843  0.53846828    -0.39270
O1044       O  0.16668709  0.76167286  0.49605627    -0.39210
O1045       O  0.28195026  0.82262475  0.59679580    -0.39910
O1046       O  0.24780961  0.85935848  0.59757397    -0.39980
C1047       C  0.08405385  0.75937365  0.68641633    -0.12260
C1048       C  0.08737524  0.79018938  0.69578192     0.04750
C1049       C  0.06445789  0.80315486  0.71507384    -0.07550
C1050       C  0.04024586  0.78423064  0.72608273    -0.08290
C1051       C  0.03807579  0.75282092  0.71815067    -0.02840
C1052       C  0.06025792  0.74047905  0.69767235     0.03970
N1053       N  0.06005703  0.70845080  0.68926065     0.66480
H1054       H  0.10161569  0.74903931  0.67198334     0.15380
H1055       H  0.02385571  0.79367895  0.74229511     0.15090
N1056       N  0.06575953  0.83507201  0.72413177     0.74180
O1057       O  0.03522577  0.69536510  0.68162955    -0.39270
O1058       O  0.08513822  0.69401606  0.68623485    -0.39210
O1059       O  0.07850014  0.85483633  0.70685279    -0.39910
O1060       O  0.05151077  0.84418726  0.74784097    -0.39980
C1061       C  0.19029755  0.73570095  0.91745917    -0.12260
C1062       C  0.19333853  0.70380507  0.91460480     0.04750
C1063       C  0.20919680  0.68734610  0.93787470    -0.07550
C1064       C  0.22419246  0.70393984  0.96166011    -0.08290
C1065       C  0.22504115  0.73651283  0.96199677    -0.02840
C1066       C  0.20684804  0.75218469  0.93959768     0.03970
N1067       N  0.20659245  0.78493748  0.93666139     0.66480
H1068       H  0.17830817  0.74864339  0.89965413     0.15380
H1069       H  0.23665302  0.69119171  0.97859510     0.15090
N1070       N  0.21088556  0.65413997  0.93726766     0.74180
O1071       O  0.18335303  0.79934077  0.94653071    -0.39270
O1072       O  0.22228993  0.79701471  0.91523364    -0.39210
O1073       O  0.19182830  0.63868301  0.92157128    -0.39910
O1074       O  0.22977402  0.63994613  0.95437061    -0.39980
C1075       C  0.04160999  0.73229363  0.78716340    -0.12260
C1076       C  0.03186870  0.71469130  0.76182429     0.04750
C1077       C  0.04351130  0.68434379  0.75875696    -0.07550
C1078       C  0.06878905  0.67509465  0.77695194    -0.08290
C1079       C  0.08150489  0.69480774  0.79924947    -0.02840
C1080       C  0.06527817  0.72210892  0.80681703     0.03970
N1081       N  0.07376533  0.74050353  0.83312946     0.66480
H1082       H  0.03182196  0.75500067  0.79057203     0.15380
H1083       H  0.07979215  0.65320714  0.77223086     0.15090
N1084       N  0.03035193  0.66281093  0.73743926     0.74180
O1085       O  0.06892746  0.76920951  0.83316002    -0.39270
O1086       O  0.08284654  0.72762660  0.85772691    -0.39210
O1087       O  0.00158598  0.65883060  0.73725205    -0.39910
O1088       O  0.04726229  0.64307684  0.72437977    -0.39980
C1089       C  0.45108745  0.70317529  0.74330376    -0.12260
C1090       C  0.46640740  0.72619776  0.72655504     0.04750
C1091       C  0.45875221  0.72991469  0.69472229    -0.07550
C1092       C  0.43256979  0.71459695  0.68274621    -0.08290
C1093       C  0.41489937  0.69460410  0.70118482    -0.02840
C1094       C  0.42674707  0.68624948  0.73065432     0.03970
N1095       N  0.41303392  0.66212178  0.74895570     0.66480
H1096       H  0.45713820  0.69913125  0.76715974     0.15380
H1097       H  0.42465858  0.72029341  0.65966921     0.15090
N1098       N  0.47633518  0.74912195  0.67417388     0.74180
O1099       O  0.40590404  0.63676761  0.73659053    -0.39270
O1100       O  0.41079975  0.66489157  0.77792230    -0.39210
O1101       O  0.47941434  0.74150440  0.64620277    -0.39910
O1102       O  0.48596012  0.77511754  0.68261950    -0.39980
C1103       C  0.44636186  0.79076631  0.74733102    -0.12260
C1104       C  0.46566665  0.77075333  0.76397348     0.04750
C1105       C  0.46214104  0.76921706  0.79656039    -0.07550
C1106       C  0.43714015  0.78430257  0.81065049    -0.08290
C1107       C  0.41604274  0.80165293  0.79321671    -0.02840
C1108       C  0.42223701  0.80677345  0.76152352     0.03970
N1109       N  0.40235687  0.82544131  0.74264598     0.66480
H1110       H  0.44902757  0.79293532  0.72260169     0.15380
H1111       H  0.43272184  0.78032067  0.83499693     0.15090
N1112       N  0.48208138  0.75108113  0.81566288     0.74180
O1113       O  0.39792172  0.85333904  0.74954479    -0.39270
O1114       O  0.39354188  0.81576965  0.71659440    -0.39210
O1115       O  0.49466195  0.76340854  0.83886844    -0.39910
O1116       O  0.48096831  0.72210494  0.81417543    -0.39980
C1117       C  0.56923750  0.68469238  0.71467151    -0.12260
C1118       C  0.58657624  0.70277909  0.69402845     0.04750
C1119       C  0.57473386  0.73210472  0.68549179    -0.07550
C1120       C  0.55031792  0.74476722  0.70226161    -0.08290
C1121       C  0.53534495  0.72835903  0.72577174    -0.02840
C1122       C  0.54330730  0.69679532  0.73028970     0.03970
N1123       N  0.52640898  0.67671339  0.75071129     0.66480
H1124       H  0.57736329  0.66184472  0.72069882     0.15380
H1125       H  0.54384993  0.76836421  0.69763848     0.15090
N1126       N  0.58849625  0.75024660  0.66126656     0.74180
O1127       O  0.52560338  0.64808314  0.74557452    -0.39270
O1128       O  0.51337143  0.68685546  0.77456784    -0.39210
O1129       O  0.59567023  0.73780529  0.63593769    -0.39910
O1130       O  0.59088638  0.77913493  0.66397997    -0.39980
C1131       C  0.56585004  0.81140994  0.78284942    -0.12260
C1132       C  0.58502395  0.79362747  0.80198119     0.05230
C1133       C  0.57602708  0.76317998  0.80892014    -0.07550
C1134       C  0.55190072  0.74957711  0.79243274    -0.08290
C1135       C  0.53485604  0.76605730  0.77022010    -0.02840
C1136       C  0.54032849  0.79834756  0.76747773     0.03970
N1137       N  0.52146306  0.81827872  0.74886250     0.66480
H1138       H  0.57212744  0.83512444  0.77798310     0.15380
H1139       H  0.54773700  0.72530917  0.79599010     0.15090
N1140       N  0.59334030  0.74450783  0.82996195     0.74180
O1141       O  0.51652466  0.84562076  0.75747038    -0.39270
O1142       O  0.51347098  0.81051487  0.72205213    -0.39210
O1143       O  0.58393722  0.74120482  0.85736586    -0.39910
O1144       O  0.61412367  0.72691183  0.81982412    -0.39980
C1145       C  0.93416894  0.77929517  0.67829261    -0.12260
C1146       C  0.92099113  0.80011610  0.69922670     0.04750
C1147       C  0.93655992  0.80569227  0.72750155    -0.07550
C1148       C  0.96000369  0.78545326  0.73688208    -0.08290
C1149       C  0.97006756  0.76141317  0.71779321    -0.02840
C1150       C  0.95910100  0.76044214  0.68695545     0.03970
N1151       N  0.97254850  0.74058169  0.66429842     0.66480
H1152       H  0.92374126  0.77614604  0.65576321     0.15380
H1153       H  0.96937128  0.78735623  0.76002615     0.15090
N1154       N  0.92758598  0.83044343  0.74764757     0.74180
O1155       O  0.95566479  0.72800318  0.64415254    -0.39270
O1156       O  0.00115493  0.74204738  0.65953526    -0.39210
O1157       O  0.93081119  0.82789788  0.77655951    -0.39910
O1158       O  0.91966640  0.85615871  0.73641526    -0.39980
C1159       C  0.91699721  0.68476034  0.75835066    -0.12260
C1160       C  0.91382440  0.69245985  0.78971163     0.04750
C1161       C  0.93711058  0.71051426  0.80379626    -0.07550
C1162       C  0.96158476  0.72203812  0.78549726    -0.08290
C1163       C  0.96361345  0.71587468  0.75359263    -0.02840
C1164       C  0.94099040  0.69661824  0.74007014     0.03970
N1165       N  0.94078447  0.69033683  0.70746774     0.66480
H1166       H  0.89913898  0.67131576  0.74717048     0.15380
H1167       H  0.97822871  0.73739911  0.79588287     0.15090
N1168       N  0.93590597  0.71785099  0.83623838     0.74180
O1169       O  0.96534840  0.68316125  0.69369022    -0.39270
O1170       O  0.91554842  0.68886040  0.69296693    -0.39210
O1171       O  0.92273343  0.69985082  0.85505938    -0.39910
O1172       O  0.95058126  0.74071855  0.84668157    -0.39980
C1173       C  0.70425024  0.54357844  0.73908493    -0.12260
C1174       C  0.73166193  0.53260412  0.72599439     0.04750
C1175       C  0.73960854  0.54306981  0.69604181    -0.07550
C1176       C  0.72320115  0.56752321  0.68236804    -0.08290
C1177       C  0.69861637  0.58170067  0.69785931    -0.02840
C1178       C  0.68717232  0.56736297  0.72510894     0.03970
N1179       N  0.65936851  0.57791399  0.73981215     0.66480
H1180       H  0.69644605  0.53423452  0.76086673     0.15380
H1181       H  0.73178738  0.57733639  0.66097733     0.15090
N1182       N  0.76489670  0.53022515  0.67948324     0.74180
O1183       O  0.63682143  0.58693743  0.72367576    -0.39270
O1184       O  0.65627725  0.57590270  0.76877784    -0.39210
O1185       O  0.75936494  0.51570099  0.65485748    -0.39910
O1186       O  0.79156345  0.54100728  0.68373611    -0.39980
C1187       C  0.79974057  0.54366384  0.75910210    -0.12260
C1188       C  0.77132004  0.53221791  0.76910489     0.04750
C1189       C  0.75918105  0.54271824  0.79773028    -0.07550
C1190       C  0.77434258  0.56700159  0.81325865    -0.08290
C1191       C  0.80122343  0.58045355  0.80120877    -0.02840
C1192       C  0.81558508  0.56650227  0.77543972     0.03970
N1193       N  0.84504435  0.57709831  0.76421697     0.66480
H1194       H  0.80940961  0.53518160  0.73777434     0.15380
H1195       H  0.76358432  0.57735745  0.83327013     0.15090
N1196       N  0.73100726  0.53050358  0.81052630     0.74180
O1197       O  0.86477773  0.58786716  0.78275320    -0.39270
O1198       O  0.85234771  0.57370696  0.73617716    -0.39210
O1199       O  0.72213836  0.50360843  0.80405084    -0.39910
O1200       O  0.71620309  0.54552261  0.83057947    -0.39980
C1201       C  0.73567697  0.42133025  0.68482593    -0.12260
C1202       C  0.70486431  0.41585958  0.69293954     0.04750
C1203       C  0.68973151  0.43737515  0.71213029    -0.07550
C1204       C  0.70648456  0.46202487  0.72489726    -0.08290
C1205       C  0.73842704  0.46498013  0.71994124    -0.02840
C1206       C  0.75275753  0.44501702  0.69859298     0.03970
N1207       N  0.78508439  0.44708659  0.69216958     0.66480
H1208       H  0.74760978  0.40508676  0.67008943     0.15380
H1209       H  0.69515607  0.47687062  0.74143955     0.15090
N1210       N  0.65785888  0.43388617  0.72004046     0.74180
O1211       O  0.80104833  0.42288133  0.68978133    -0.39270
O1212       O  0.79654190  0.47246492  0.68377680    -0.39210
O1213       O  0.64977176  0.41338375  0.73915135    -0.39910
O1214       O  0.63922564  0.45526099  0.71347852    -0.39980
C1215       C  0.75345720  0.44551054  0.78569668    -0.12260
C1216       C  0.77284986  0.46384756  0.76721133     0.04750
C1217       C  0.80521857  0.46015935  0.77074528    -0.07550
C1218       C  0.81670795  0.43583002  0.78891711    -0.08290
C1219       C  0.79693817  0.41586017  0.80491807    -0.02840
C1220       C  0.76503574  0.42249156  0.80529018     0.03970
N1221       N  0.74373745  0.40421892  0.82303057     0.66480
H1222       H  0.72872298  0.44838128  0.78410306     0.15380
H1223       H  0.84124224  0.43109991  0.78865870     0.15090
N1224       N  0.82713555  0.47970859  0.75577846     0.74180
O1225       O  0.74863605  0.39957172  0.85143191    -0.39270
O1226       O  0.71780892  0.39709382  0.81182362    -0.39210
O1227       O  0.84455613  0.49587462  0.77259725    -0.39910
O1228       O  0.83660258  0.47248979  0.72925888    -0.39980
C1229       C  0.76377224  0.04612965  0.70555662    -0.12260
C1230       C  0.77682540  0.03458666  0.73297833     0.04750
C1231       C  0.80616438  0.04614301  0.74191948    -0.07550
C1232       C  0.81938490  0.07101528  0.72551430    -0.08290
C1233       C  0.80469286  0.08408514  0.69970609    -0.02840
C1234       C  0.77817887  0.06918117  0.68783641     0.03970
N1235       N  0.76459652  0.07863550  0.65890050     0.66480
H1236       H  0.74109940  0.03860779  0.69876475     0.15380
H1237       H  0.84016294  0.08164989  0.73441777     0.15090
N1238       N  0.82236876  0.03412866  0.76816576     0.74180
O1239       O  0.78150292  0.08835425  0.63719415    -0.39270
O1240       O  0.73625980  0.07433609  0.65374270    -0.39210
O1241       O  0.82750142  0.00559796  0.77004913    -0.39910
O1242       O  0.83696571  0.05215679  0.78577209    -0.39980
C1243       C  0.70653284  0.04536336  0.76005343    -0.12260
C1244       C  0.73483906  0.03615457  0.77293976     0.04750
C1245       C  0.74459291  0.04921202  0.80123653    -0.07550
C1246       C  0.72637386  0.07199043  0.81498252    -0.08290
C1247       C  0.70009097  0.08406708  0.80022170    -0.02840
C1248       C  0.68891107  0.06909585  0.77341142     0.03970
N1249       N  0.66103237  0.07889962  0.75840623     0.66480
H1250       H  0.69884196  0.03495930  0.73865872     0.15380
H1251       H  0.73443195  0.08252032  0.83618703     0.15090
N1252       N  0.77260040  0.03968111  0.81647955     0.74180
O1253       O  0.65929996  0.07923845  0.72926852    -0.39270
O1254       O  0.63684012  0.08289663  0.77408003    -0.39210
O1255       O  0.78597219  0.05755263  0.83518475    -0.39910
O1256       O  0.78221690  0.01234583  0.81414960    -0.39980
C1257       C  0.71320041  0.94315950  0.74787995    -0.12260
C1258       C  0.72589443  0.96618152  0.76685818     0.04750
C1259       C  0.71959877  0.96336820  0.79924630    -0.07550
C1260       C  0.70720022  0.93574253  0.81119348    -0.08290
C1261       C  0.69804680  0.91173999  0.79188210    -0.02840
C1262       C  0.69982397  0.91627440  0.75954361     0.03970
N1263       N  0.69183168  0.89258381  0.73786505     0.66480
H1264       H  0.71589122  0.94437976  0.72323003     0.15380
H1265       H  0.70437645  0.93312549  0.83595848     0.15090
N1266       N  0.72000642  0.98888866  0.81987012     0.74180
O1267       O  0.66530748  0.88065636  0.73823769    -0.39270
O1268       O  0.70973145  0.88667880  0.71561383    -0.39210
O1269       O  0.69662516  0.00620998  0.81973240    -0.39910
O1270       O  0.73490544  0.98629520  0.84482468    -0.39980
C1271       C  0.79587863  0.94954876  0.75086601    -0.12260
C1272       C  0.77429693  0.96645429  0.73364058     0.04750
C1273       C  0.77116073  0.95995222  0.70154959    -0.07550
C1274       C  0.78648473  0.93407877  0.68921315    -0.08290
C1275       C  0.80570376  0.91535859  0.70749718    -0.02840
C1276       C  0.81241525  0.92504898  0.73795537     0.03970
N1277       N  0.83403804  0.90897398  0.75713574     0.66480
H1278       H  0.79846974  0.95409920  0.77535397     0.15380
H1279       H  0.78146831  0.92710359  0.66570946     0.15090
N1280       N  0.75126796  0.97751831  0.68145647     0.74180
O1281       O  0.85697140  0.92343285  0.76771391    -0.39270
O1282       O  0.82646557  0.88373941  0.76954039    -0.39210
O1283       O  0.75839907  0.98101220  0.65336838    -0.39910
O1284       O  0.72524318  0.98681892  0.69044970    -0.39980
C1285       C  0.70768860  0.73765417  0.54220928    -0.12260
C1286       C  0.73607740  0.72538598  0.53244362     0.04750
C1287       C  0.74439276  0.69584512  0.54340288    -0.07550
C1288       C  0.72762271  0.68222775  0.56746734    -0.08290
C1289       C  0.70258304  0.69738081  0.58119301    -0.02840
C1290       C  0.69055506  0.72380347  0.56617441     0.03970
N1291       N  0.66219850  0.73775627  0.57598514     0.66480
H1292       H  0.69948466  0.75899503  0.53220147     0.15380
H1293       H  0.73598183  0.66078931  0.57731320     0.15090
N1294       N  0.76972427  0.67918116  0.53074675     0.74180
O1295       O  0.65890087  0.76665476  0.57471964    -0.39270
O1296       O  0.63894103  0.72106573  0.58135420    -0.39210
O1297       O  0.79005051  0.66854139  0.54876242    -0.39910
O1298       O  0.76627684  0.66682503  0.50463866    -0.39980
C1299       C  0.81929962  0.78381229  0.56925954    -0.12260
C1300       C  0.80056760  0.80283803  0.58745863     0.04750
C1301       C  0.76992545  0.80813303  0.57763459    -0.07550
C1302       C  0.75788037  0.79118331  0.55275424    -0.08290
C1303       C  0.77543514  0.76901644  0.53686407    -0.02840
C1304       C  0.80731837  0.76678165  0.54429875     0.03970
N1305       N  0.82775876  0.74615000  0.52858922     0.66480
H1306       H  0.84286751  0.77968040  0.57650643     0.15380
H1307       H  0.73397495  0.79460240  0.54686825     0.15090
N1308       N  0.74974681  0.82826627  0.59439157     0.74180
O1309       O  0.85554569  0.75372950  0.52427400    -0.39270
O1310       O  0.81957872  0.71895149  0.52276172    -0.39210
O1311       O  0.75743018  0.85596357  0.59890073    -0.39910
O1312       O  0.72250209  0.81991357  0.60040077    -0.39980
C1313       C  0.73896196  0.69308727  0.41905805    -0.12260
C1314       C  0.70760674  0.69979699  0.41484476     0.04750
C1315       C  0.69247318  0.71824277  0.43708638    -0.07550
C1316       C  0.70975621  0.73091652  0.46167955    -0.08290
C1317       C  0.74185739  0.72652839  0.46413542    -0.02840
C1318       C  0.75645837  0.70694463  0.44244204     0.03970
N1319       N  0.78931276  0.70270708  0.44193890     0.66480
H1320       H  0.75090732  0.67932194  0.40198290     0.15380
H1321       H  0.69839288  0.74611011  0.47777892     0.15090
N1322       N  0.66008702  0.72515060  0.43448517     0.74180
O1323       O  0.80382659  0.69658981  0.46642623    -0.39270
O1324       O  0.80344444  0.70152969  0.41646071    -0.39210
O1325       O  0.64197529  0.70651103  0.42136409    -0.39910
O1326       O  0.64900475  0.74872045  0.44742730    -0.39980
C1327       C  0.92890388  0.76727427  0.31318634    -0.12260
C1328       C  0.91874412  0.79636295  0.30299949     0.04750
C1329       C  0.93611145  0.81152656  0.27988088    -0.07550
C1330       C  0.96024937  0.79576348  0.26509792    -0.08290
C1331       C  0.96559911  0.76426219  0.27088786    -0.02840
C1332       C  0.95029815  0.75021589  0.29621856     0.03970
N1333       N  0.95344174  0.71803909  0.30349217     0.66480
H1334       H  0.91667334  0.75555416  0.33164178     0.15380
H1335       H  0.97300041  0.80755594  0.24717356     0.15090
N1336       N  0.92780013  0.84151249  0.26890802     0.74180
O1337       O  0.95478103  0.70978696  0.33148311    -0.39270
O1338       O  0.94491142  0.69837125  0.28391815    -0.39210
O1339       O  0.94508572  0.86413721  0.27486247    -0.39910
O1340       O  0.90778362  0.84407754  0.24785923    -0.39980
C1341       C  0.77291843  0.81263954  0.42827458    -0.12260
C1342       C  0.80206551  0.80469744  0.41646882     0.04750
C1343       C  0.82086051  0.78467187  0.43418083    -0.07550
C1344       C  0.80784295  0.76879284  0.45941010    -0.08290
C1345       C  0.77687613  0.77293937  0.46788835    -0.02840
C1346       C  0.75992212  0.79683559  0.45345037     0.03970
N1347       N  0.72864958  0.80355425  0.46224189     0.66480
H1348       H  0.75880258  0.82924025  0.41599826     0.15380
H1349       H  0.82139523  0.75129531  0.47067439     0.15090
N1350       N  0.85237951  0.77878373  0.42586271     0.74180
O1351       O  0.72061392  0.80219527  0.49021238    -0.39270
O1352       O  0.70965776  0.81365571  0.44252724    -0.39210
O1353       O  0.86968366  0.80081251  0.41782519    -0.39910
O1354       O  0.86407596  0.75250151  0.43039333    -0.39980
C1355       C  0.92517372  0.73347220  0.18645686    -0.12260
C1356       C  0.91788785  0.70241474  0.19192404     0.04750
C1357       C  0.93920970  0.68382527  0.20815460    -0.07550
C1358       C  0.96455442  0.69800664  0.22268181    -0.08290
C1359       C  0.96798784  0.73023348  0.22270355    -0.02840
C1360       C  0.95012907  0.74758528  0.20152214     0.03970
N1361       N  0.95668542  0.77951651  0.19553991     0.66480
H1362       H  0.90964645  0.74757579  0.17280783     0.15380
H1363       H  0.97966874  0.68397720  0.23645034     0.15090
N1364       N  0.93428120  0.65113518  0.21176273     0.74180
O1365       O  0.98427283  0.78855101  0.19346536    -0.39270
O1366       O  0.93525603  0.79789349  0.18837231    -0.39210
O1367       O  0.91849276  0.63640352  0.19221112    -0.39910
O1368       O  0.94734124  0.63643218  0.23334576    -0.39980
C1369       C  0.74870748  0.79296787  0.04913491    -0.12260
C1370       C  0.73115631  0.77080011  0.03333862     0.04750
C1371       C  0.69885942  0.77015912  0.03847416    -0.07550
C1372       C  0.68619164  0.78830967  0.06221151    -0.08290
C1373       C  0.70479512  0.80716153  0.08088794    -0.02840
C1374       C  0.73587250  0.81166502  0.07217966     0.03970
N1375       N  0.75551913  0.83270054  0.08857190     0.66480
H1376       H  0.77311719  0.79478375  0.04474671     0.15380
H1377       H  0.66220536  0.78498431  0.06839349     0.15090
N1378       N  0.67869233  0.75005010  0.02170302     0.74180
O1379       O  0.78297826  0.82530450  0.09483768    -0.39270
O1380       O  0.74700564  0.86020517  0.09267503    -0.39210
O1381       O  0.68436397  0.72162618  0.02016122    -0.39910
O1382       O  0.65247815  0.75961823  0.01337291    -0.39980
C1383       C  0.74969551  0.70482745  0.05512266    -0.12260
C1384       C  0.76674836  0.72467706  0.03593352     0.04750
C1385       C  0.79925517  0.72585324  0.03991342    -0.07550
C1386       C  0.81274726  0.70961226  0.06489080    -0.08290
C1387       C  0.79492163  0.69181574  0.08547959    -0.02840
C1388       C  0.76332158  0.68769249  0.07891284     0.03970
N1389       N  0.74396052  0.66890389  0.09823996     0.66480
H1390       H  0.72505896  0.70330651  0.05247513     0.15380
H1391       H  0.83696210  0.71311857  0.06995844     0.15090
N1392       N  0.81885343  0.74440517  0.02047794     0.74180
O1393       O  0.71782735  0.67862621  0.10655482    -0.39270
O1394       O  0.75072143  0.64095872  0.10281315    -0.39210
O1395       O  0.81006026  0.77026601  0.01042800    -0.39910
O1396       O  0.84626509  0.73606356  0.01542426    -0.39980
C1397       C  0.79205816  0.74399986  0.94817442    -0.12260
C1398       C  0.77136360  0.72657514  0.96613157     0.04750
C1399       C  0.77164668  0.69394259  0.96284866    -0.07550
C1400       C  0.78867002  0.68088178  0.93829779    -0.08290
C1401       C  0.80632676  0.69915544  0.91802151    -0.02840
C1402       C  0.81012452  0.73070954  0.92497802     0.03970
N1403       N  0.82966234  0.75028941  0.90665001     0.66480
H1404       H  0.79339161  0.76868953  0.95139683     0.15380
H1405       H  0.78591186  0.65658378  0.93325516     0.15090
N1406       N  0.75386331  0.67370268  0.98240670     0.74180
O1407       O  0.82064235  0.77687342  0.89883561    -0.39270
O1408       O  0.85752788  0.74306109  0.90247656    -0.39210
O1409       O  0.72852421  0.68213133  0.99379370    -0.39910
O1410       O  0.76253436  0.64622777  0.98665302    -0.39980
C1411       C  0.68540764  0.77102861  0.92836048    -0.12260
C1412       C  0.69804114  0.79873545  0.91711577     0.04750
C1413       C  0.72221132  0.81250760  0.93436311    -0.07550
C1414       C  0.73611126  0.79559707  0.95873602    -0.08290
C1415       C  0.72729845  0.76497505  0.96520064    -0.02840
C1416       C  0.70115503  0.75296840  0.94992322     0.03970
N1417       N  0.69277320  0.72113637  0.95209684     0.66480
H1418       H  0.66621139  0.76043176  0.91633058     0.15380
H1419       H  0.75543419  0.80545478  0.97113286     0.15090
N1420       N  0.73379313  0.84261565  0.92665939     0.74180
O1421       O  0.66541750  0.71427658  0.95930990    -0.39270
O1422       O  0.70814542  0.70191437  0.93665782    -0.39210
O1423       O  0.71537118  0.86379598  0.91890167    -0.39910
O1424       O  0.76169055  0.84930760  0.93164678    -0.39980
C1425       C  0.73046665  0.28778918  0.53747846    -0.12260
C1426       C  0.72154295  0.25666672  0.53464546     0.04750
C1427       C  0.69724493  0.24565179  0.55378048    -0.07550
C1428       C  0.68496276  0.26510418  0.57655259    -0.08290
C1429       C  0.69721973  0.29447220  0.58225385    -0.02840
C1430       C  0.71886603  0.30678807  0.56115074     0.03970
N1431       N  0.73001493  0.33794187  0.56413959     0.66480
H1432       H  0.74825661  0.29675736  0.52244491     0.15380
H1433       H  0.66817211  0.25561325  0.59249236     0.15090
N1434       N  0.68535367  0.21470736  0.55187089     0.74180
O1435       O  0.75544869  0.34577014  0.55228241    -0.39270
O1436       O  0.71326074  0.35843843  0.57617866    -0.39210
O1437       O  0.70213137  0.19270722  0.54333707    -0.39910
O1438       O  0.65812977  0.20889422  0.56044210    -0.39980
C1439       C  0.78853807  0.24229271  0.54743188    -0.12260
C1440       C  0.76843597  0.22149821  0.53298563     0.04750
C1441       C  0.77092765  0.18988031  0.54162464    -0.07550
C1442       C  0.78719607  0.18161799  0.56850860    -0.08290
C1443       C  0.80302399  0.20367260  0.58589214    -0.02840
C1444       C  0.80614561  0.23382981  0.57325136     0.03970
N1445       N  0.82531721  0.25683245  0.58739940     0.66480
H1446       H  0.78941671  0.26597442  0.53956827     0.15380
H1447       H  0.78658303  0.15786644  0.57632878     0.15090
N1448       N  0.76013418  0.16542924  0.52247878     0.74180
O1449       O  0.85320708  0.25094969  0.59332815    -0.39270
O1450       O  0.81551994  0.28403913  0.59065671    -0.39210
O1451       O  0.77768918  0.15662591  0.50102819    -0.39910
O1452       O  0.74160482  0.14599544  0.53380945    -0.39980
C1453       C  0.79322294  0.95414270  0.26004973    -0.12260
C1454       C  0.76764652  0.96445274  0.27702430     0.04750
C1455       C  0.76445980  0.95412986  0.30808842    -0.07550
C1456       C  0.78368348  0.93025404  0.31891735    -0.08290
C1457       C  0.80606184  0.91672226  0.29983960    -0.02840
C1458       C  0.81310165  0.93130696  0.27144088     0.03970
N1459       N  0.83929637  0.92210043  0.25326646     0.66480
H1460       H  0.79727670  0.96294719  0.23713764     0.15380
H1461       H  0.77890354  0.92013532  0.34133475     0.15090
N1462       N  0.74157940  0.96628656  0.32879061     0.74180
O1463       O  0.83877280  0.92460078  0.22417658    -0.39270
O1464       O  0.86417742  0.91451310  0.26641619    -0.39210
O1465       O  0.71612643  0.97612203  0.31890131    -0.39910
O1466       O  0.74633671  0.96607224  0.35759497    -0.39980
C1467       C  0.68433128  0.92662292  0.22836277    -0.12260
C1468       C  0.70044608  0.91541369  0.20263226     0.04750
C1469       C  0.72570553  0.93277494  0.19128322    -0.07550
C1470       C  0.73776790  0.95671057  0.20941948    -0.08290
C1471       C  0.72415453  0.96525337  0.23757552    -0.02840
C1472       C  0.69551620  0.95174402  0.24549978     0.03970
N1473       N  0.67736149  0.96317128  0.27051980     0.66480
H1474       H  0.66395569  0.91460599  0.23644259     0.15380
H1475       H  0.75868160  0.96800747  0.20195101     0.15090
N1476       N  0.74014395  0.92544670  0.16226620     0.74180
O1477       O  0.66356885  0.94455156  0.28825399    -0.39270
O1478       O  0.66918585  0.99104705  0.27024850    -0.39210
O1479       O  0.72404802  0.91608549  0.13983722    -0.39910
O1480       O  0.76830818  0.93139884  0.15787282    -0.39980
C1481       C  0.72424356  0.03465389  0.20998967    -0.12260
C1482       C  0.72176645  0.03382011  0.24245657     0.04750
C1483       C  0.70327597  0.05631685  0.25721378    -0.07550
C1484       C  0.68918388  0.07935044  0.23947344    -0.08290
C1485       C  0.69469350  0.08213925  0.20769346    -0.02840
C1486       C  0.71132617  0.05879133  0.19237415     0.03970
N1487       N  0.71641717  0.06004970  0.15945283     0.66480
H1488       H  0.73853147  0.01797815  0.19844490     0.15380
H1489       H  0.67662791  0.09738822  0.25132605     0.15090
N1490       N  0.70071367  0.05805277  0.29029331     0.74180
O1491       O  0.73766741  0.04438783  0.14723718    -0.39270
O1492       O  0.69828641  0.07493996  0.14211488    -0.39210
O1493       O  0.70063912  0.08395803  0.30353117    -0.39910
O1494       O  0.69505852  0.03424319  0.30606102    -0.39980
C1495       C  0.73421698  0.28703204  0.45753831    -0.12260
C1496       C  0.72051171  0.25889355  0.46616868     0.04750
C1497       C  0.69203277  0.25089761  0.45227392    -0.07550
C1498       C  0.68028957  0.26886011  0.42781433    -0.08290
C1499       C  0.69594350  0.29503806  0.41685540    -0.02840
C1500       C  0.72185404  0.30566504  0.43378810     0.03970
N1501       N  0.73646124  0.33459008  0.42636623     0.66480
H1502       H  0.75564843  0.29381571  0.46838682     0.15380
H1503       H  0.65987904  0.26088929  0.41580130     0.15090
N1504       N  0.67506000  0.22425119  0.46188097     0.74180
O1505       O  0.76450056  0.33903692  0.43285602    -0.39270
O1506       O  0.72056710  0.35695571  0.41653629    -0.39210
O1507       O  0.66815459  0.22100580  0.48998037    -0.39910
O1508       O  0.66169936  0.20762111  0.44205192    -0.39980
C1509       C  0.92486273  0.18417261  0.26820438    -0.12260
C1510       C  0.91693875  0.19591427  0.29736841     0.04750
C1511       C  0.93659454  0.21786596  0.31133229    -0.07550
C1512       C  0.96057328  0.23092704  0.29373563    -0.08290
C1513       C  0.96602470  0.22191337  0.26308437    -0.02840
C1514       C  0.94907726  0.19693583  0.25086109     0.03970
N1515       N  0.95495071  0.18541631  0.22035049     0.66480
H1516       H  0.91036403  0.16684717  0.25755142     0.15380
H1517       H  0.97357477  0.24990078  0.30313462     0.15090
N1518       N  0.93155400  0.22805927  0.34259433     0.74180
O1519       O  0.93305974  0.17543073  0.20391989    -0.39270
O1520       O  0.98229069  0.18128671  0.21139991    -0.39210
O1521       O  0.91901838  0.21031598  0.36209064    -0.39910
O1522       O  0.94248057  0.25344005  0.35173446    -0.39980
C1523       C  0.77620970  0.17859669  0.42859224    -0.12260
C1524       C  0.80143664  0.19569937  0.41740394     0.04750
C1525       C  0.81014643  0.22266262  0.43353486    -0.07550
C1526       C  0.79103350  0.23361477  0.45748881    -0.08290
C1527       C  0.76297250  0.21897611  0.46485043    -0.02840
C1528       C  0.75552961  0.19087551  0.45011329     0.03970
N1529       N  0.72675638  0.17501890  0.45533542     0.66480
H1530       H  0.77006534  0.15726392  0.41713975     0.15380
H1531       H  0.79701660  0.25491501  0.46904118     0.15090
N1532       N  0.83666862  0.24036912  0.42447603     0.74180
O1533       O  0.71571632  0.15757405  0.43479064    -0.39270
O1534       O  0.71342481  0.17623775  0.48115269    -0.39210
O1535       O  0.83624490  0.26941871  0.42626859    -0.39910
O1536       O  0.86177307  0.22697809  0.41846636    -0.39980
C1537       C  0.80756770  0.07290619  0.27095813    -0.12260
C1538       C  0.80066595  0.08410648  0.30064833     0.04750
C1539       C  0.78161930  0.06588367  0.31989797    -0.07550
C1540       C  0.76691182  0.03964976  0.30770312    -0.08290
C1541       C  0.76933925  0.03228003  0.27614321    -0.02840
C1542       C  0.79134903  0.04823979  0.25800154     0.03970
N1543       N  0.79555370  0.04180336  0.22566274     0.66480
H1544       H  0.82341089  0.08546137  0.25621964     0.15380
H1545       H  0.75083199  0.02728201  0.32218845     0.15090
N1546       N  0.77473176  0.07495436  0.35085910     0.74180
O1547       O  0.80194852  0.06331216  0.20698181    -0.39270
O1548       O  0.79576701  0.01443459  0.21603586    -0.39210
O1549       O  0.75279800  0.09340014  0.35575215    -0.39910
O1550       O  0.78556112  0.05948390  0.37309928    -0.39980
C1551       C  0.92831764  0.27666745  0.18208840    -0.12260
C1552       C  0.91307439  0.29879758  0.20016152     0.04750
C1553       C  0.92616292  0.30673978  0.22911823    -0.07550
C1554       C  0.94994553  0.28872354  0.24134285    -0.08290
C1555       C  0.96423191  0.26533197  0.22433284    -0.02840
C1556       C  0.95413134  0.26020467  0.19348029     0.03970
N1557       N  0.96830873  0.23747084  0.17402184     0.66480
H1558       H  0.91890819  0.27077846  0.15967902     0.15380
H1559       H  0.95631914  0.29211933  0.26522949     0.15090
N1560       N  0.91424735  0.33169224  0.24738163     0.74180
O1561       O  0.95303722  0.22478060  0.15269368    -0.39270
O1562       O  0.99694852  0.23288126  0.17532699    -0.39210
O1563       O  0.91281166  0.32934482  0.27645417    -0.39910
O1564       O  0.90800611  0.35723528  0.23477111    -0.39980
C1565       C  0.74665349  0.20756227  0.05373471    -0.12260
C1566       C  0.72711853  0.22536371  0.03489962     0.04750
C1567       C  0.69479858  0.22159921  0.03854917    -0.07550
C1568       C  0.68341293  0.20458310  0.06371887    -0.08290
C1569       C  0.70332151  0.18987082  0.08449730    -0.02840
C1570       C  0.73521965  0.18921980  0.07783720     0.03970
N1571       N  0.75664989  0.17286485  0.09723932     0.66480
H1572       H  0.77137820  0.20915261  0.05064660     0.15380
H1573       H  0.65885247  0.20471335  0.06832200     0.15090
N1574       N  0.67285509  0.23454400  0.01764042     0.74180
O1575       O  0.75171033  0.14500843  0.10417554    -0.39270
O1576       O  0.78260839  0.18453386  0.10342872    -0.39210
O1577       O  0.65877811  0.21626052  0.99989760    -0.39910
O1578       O  0.65954201  0.25926704  0.02498832    -0.39980
C1579       C  0.79261861  0.26964613  0.03821749    -0.12260
C1580       C  0.76048438  0.27327755  0.03543436     0.04750
C1581       C  0.74539350  0.29419409  0.05527281    -0.07550
C1582       C  0.76221933  0.30953030  0.07821579    -0.08290
C1583       C  0.79356482  0.30335005  0.08322340    -0.02840
C1584       C  0.80939814  0.28424169  0.06203278     0.03970
N1585       N  0.84195079  0.27838347  0.06529259     0.66480
H1586       H  0.80424295  0.25350662  0.02317531     0.15380
H1587       H  0.74983574  0.32394116  0.09442093     0.15090
N1588       N  0.71266128  0.29862810  0.05385090     0.74180
O1589       O  0.85411981  0.25531244  0.05243251    -0.39270
O1590       O  0.85913968  0.29749876  0.07896398    -0.39210
O1591       O  0.69983706  0.30421867  0.02830017    -0.39910
O1592       O  0.69720802  0.30131736  0.07841464    -0.39980
C1593       C  0.72430807  0.18634714  0.92743591    -0.12260
C1594       C  0.69798227  0.19998669  0.91424043     0.04750
C1595       C  0.68424374  0.22526203  0.92956189    -0.07550
C1596       C  0.70008542  0.23943371  0.95390762    -0.08290
C1597       C  0.72771518  0.22749785  0.96558302    -0.02840
C1598       C  0.73930526  0.19956502  0.95316692     0.03970
N1599       N  0.76697373  0.18535383  0.96492380     0.66480
H1600       H  0.73466119  0.16666332  0.91615879     0.15380
H1601       H  0.69086547  0.26034189  0.96377429     0.15090
N1602       N  0.65498100  0.23758047  0.91977566     0.74180
O1603       O  0.78246430  0.16732947  0.94815067    -0.39270
O1604       O  0.77504121  0.18901179  0.99268300    -0.39210
O1605       O  0.63425137  0.21980054  0.90967106    -0.39910
O1606       O  0.64854384  0.26560517  0.92422920    -0.39980
C1607       C  0.79473755  0.25628737  0.95506004    -0.12260
C1608       C  0.76807259  0.26927362  0.96795181     0.04750
C1609       C  0.75978732  0.29945060  0.95898570    -0.07550
C1610       C  0.77512415  0.31380989  0.93438227    -0.08290
C1611       C  0.79852986  0.29855211  0.91811233    -0.02840
C1612       C  0.80993802  0.27041851  0.93017010     0.03970
N1613       N  0.83424989  0.25388147  0.91526497     0.66480
H1614       H  0.80239942  0.23377281  0.96252607     0.15380
H1615       H  0.76665166  0.33585487  0.92611742     0.15090
N1616       N  0.73485639  0.31537011  0.97323074     0.74180
O1617       O  0.85890090  0.24864200  0.92986795    -0.39270
O1618       O  0.82850821  0.23866961  0.89110902    -0.39210
O1619       O  0.74112473  0.33660595  0.99209305    -0.39910
O1620       O  0.70889259  0.31547392  0.96006851    -0.39980
C1621       C  0.70994959  0.44988102  0.25795773    -0.12260
C1622       C  0.73163222  0.46447319  0.27697759     0.04750
C1623       C  0.73181726  0.45671130  0.30899631    -0.07550
C1624       C  0.71485380  0.43066850  0.31918104    -0.08290
C1625       C  0.69656351  0.41339990  0.29870602    -0.02840
C1626       C  0.69150757  0.42563428  0.26862816     0.03970
N1627       N  0.66934719  0.41241189  0.24778511     0.66480
H1628       H  0.70838249  0.45629978  0.23383842     0.15380
H1629       H  0.71801692  0.42243796  0.34263386     0.15090
N1630       N  0.74989017  0.47337893  0.33129694     0.74180
O1631       O  0.64226168  0.40691960  0.25695264    -0.39270
O1632       O  0.67568361  0.40937573  0.21946849    -0.39210
O1633       O  0.74135388  0.47435126  0.35917410    -0.39910
O1634       O  0.77528053  0.48546257  0.32404150    -0.39980
C1635       C  0.76872819  0.46007750  0.20866038    -0.12260
C1636       C  0.77671512  0.46312062  0.24007755     0.04750
C1637       C  0.79953006  0.44318790  0.25226691    -0.07550
C1638       C  0.81263942  0.42047494  0.23359516    -0.08290
C1639       C  0.80178240  0.41496575  0.20358552    -0.02840
C1640       C  0.78081297  0.43615782  0.19022898     0.03970
N1641       N  0.77071078  0.43292047  0.15865492     0.66480
H1642       H  0.75102974  0.47480978  0.19912247     0.15380
H1643       H  0.82833565  0.40423067  0.24438177     0.15090
N1644       N  0.80701514  0.44255833  0.28442847     0.74180
O1645       O  0.74606154  0.44553398  0.14960030    -0.39270
O1646       O  0.78772144  0.41983684  0.13899870    -0.39210
O1647       O  0.79141737  0.42520208  0.30189726    -0.39910
O1648       O  0.83416107  0.44929126  0.29247807    -0.39980
C1649       C  0.76889862  0.53935702  0.20815643    -0.12260
C1650       C  0.77852412  0.53177648  0.23826220     0.04750
C1651       C  0.80531404  0.54664097  0.24993713    -0.07550
C1652       C  0.81875785  0.57112709  0.23314653    -0.08290
C1653       C  0.80637426  0.58115885  0.20491679    -0.02840
C1654       C  0.78267167  0.56340481  0.19115158     0.03970
N1655       N  0.77107405  0.57082766  0.16079074     0.66480
H1656       H  0.74944887  0.52763775  0.19816569     0.15380
H1657       H  0.83737597  0.58415691  0.24351899     0.15090
N1658       N  0.81855223  0.53808202  0.27913738     0.74180
O1659       O  0.74385521  0.56374311  0.15322162    -0.39270
O1660       O  0.78867368  0.58249371  0.14065928    -0.39210
O1661       O  0.81941315  0.51015630  0.28707748    -0.39910
O1662       O  0.83327066  0.55758004  0.29497820    -0.39980
C1663       C  0.68980817  0.56762834  0.28135021    -0.12260
C1664       C  0.70413381  0.58452775  0.30497170     0.04750
C1665       C  0.73156123  0.57239627  0.31820011    -0.07550
C1666       C  0.74681948  0.54804475  0.30359102    -0.08290
C1667       C  0.73470087  0.53354453  0.27740185    -0.02840
C1668       C  0.70438924  0.54185797  0.26766035     0.03970
N1669       N  0.68806096  0.52541543  0.24385403     0.66480
H1670       H  0.66845134  0.57611782  0.27153077     0.15380
H1671       H  0.76913790  0.54124608  0.31223346     0.15090
N1672       N  0.74549071  0.58608193  0.34508684     0.74180
O1673       O  0.65895680  0.52473161  0.24402473    -0.39270
O1674       O  0.70211583  0.51248639  0.22200285    -0.39210
O1675       O  0.72886852  0.59535776  0.36711547    -0.39910
O1676       O  0.77446802  0.58720412  0.34778130    -0.39980
C1677       C  0.25813192  0.54570472  0.70395327    -0.12260
C1678       C  0.27458947  0.53280329  0.72865322     0.04750
C1679       C  0.30541243  0.54243891  0.73382340    -0.07550
C1680       C  0.31694793  0.56777933  0.71692367    -0.08290
C1681       C  0.29888503  0.58267697  0.69443136    -0.02840
C1682       C  0.27065131  0.56896711  0.68546267     0.03970
N1683       N  0.25335069  0.58012485  0.65929355     0.66480
H1684       H  0.23451353  0.53872290  0.70004612     0.15380
H1685       H  0.33914907  0.57741678  0.72307248     0.15090
N1686       N  0.32461522  0.52821798  0.75692770     0.74180
O1687       O  0.26720694  0.58875189  0.63510049    -0.39270
O1688       O  0.22426803  0.57869138  0.65911739    -0.39210
O1689       O  0.32230757  0.49977926  0.76250737    -0.39910
O1690       O  0.34667109  0.54301237  0.76888136    -0.39980
C1691       C  0.20601680  0.54186136  0.76396062    -0.12260
C1692       C  0.23656178  0.53530654  0.77255292     0.04750
C1693       C  0.24969031  0.55206990  0.79730155    -0.07550
C1694       C  0.23317273  0.57655899  0.81061830    -0.08290
C1695       C  0.20374021  0.58494863  0.79994925    -0.02840
C1696       C  0.18915931  0.56596912  0.77771062     0.03970
N1697       N  0.15779737  0.57152522  0.76818748     0.66480
H1698       H  0.19585640  0.52922813  0.74514701     0.15380
H1699       H  0.24447852  0.59065326  0.82787807     0.15090
N1700       N  0.28019746  0.54552501  0.80834896     0.74180
O1701       O  0.14812774  0.56163068  0.74252403    -0.39270
O1702       O  0.13873628  0.58329068  0.78676742    -0.39210
O1703       O  0.29759001  0.56720260  0.81701528    -0.39910
O1704       O  0.28809565  0.51807943  0.81386724    -0.39980
C1705       C  0.92415270  0.26764796  0.81214346    -0.12260
C1706       C  0.91495834  0.29810280  0.80536883     0.04750
C1707       C  0.93489638  0.31648712  0.78710522    -0.07550
C1708       C  0.96048738  0.30251897  0.77257662    -0.08290
C1709       C  0.96595776  0.27058727  0.77504222    -0.02840
C1710       C  0.94826238  0.25328704  0.79632525     0.03970
N1711       N  0.95244205  0.22056017  0.80018717     0.66480
H1712       H  0.91035443  0.25350806  0.82749554     0.15380
H1713       H  0.97477125  0.31630647  0.75749014     0.15090
N1714       N  0.92900727  0.34873151  0.78214629     0.74180
O1715       O  0.97897084  0.20879716  0.79927488    -0.39270
O1716       O  0.92968555  0.20339060  0.80622411    -0.39210
O1717       O  0.91939738  0.36524566  0.80409055    -0.39910
O1718       O  0.93712170  0.36158374  0.75720970    -0.39980
C1719       C  0.96371452  0.20493386  0.72907344    -0.12260
C1720       C  0.96601936  0.23726792  0.72710202     0.04750
C1721       C  0.94553935  0.25323543  0.70720165    -0.07550
C1722       C  0.92236755  0.23685839  0.69180774    -0.08290
C1723       C  0.91768980  0.20531321  0.69719151    -0.02840
C1724       C  0.93958342  0.18870812  0.71468574     0.03970
N1725       N  0.93661021  0.15591162  0.71940493     0.66480
H1726       H  0.97902538  0.19238752  0.74407173     0.15380
H1727       H  0.90559271  0.24968382  0.67835887     0.15090
N1728       N  0.94599971  0.28627133  0.70442041     0.74180
O1729       O  0.95017224  0.14282084  0.74170597    -0.39270
O1730       O  0.92228985  0.13950958  0.70006074    -0.39210
O1731       O  0.97120082  0.30058961  0.70225512    -0.39910
O1732       O  0.92109267  0.30110536  0.70173121    -0.39980
C1733       C  0.04071126  0.20209727  0.73809347    -0.12260
C1734       C  0.03418267  0.23300606  0.73042243     0.04750
C1735       C  0.04899648  0.24603915  0.70457687    -0.07550
C1736       C  0.07148532  0.22926693  0.68889247    -0.08290
C1737       C  0.08197896  0.20057765  0.70003768    -0.02840
C1738       C  0.06419579  0.18545607  0.72289264     0.03970
N1739       N  0.07036642  0.15404957  0.73165765     0.66480
H1740       H  0.02882533  0.19144578  0.75730376     0.15380
H1741       H  0.08377638  0.24084578  0.67037198     0.15090
N1742       N  0.04413755  0.27743292  0.69581721     0.74180
O1743       O  0.06365225  0.14453567  0.75843619    -0.39270
O1744       O  0.07800873  0.13466095  0.71135821    -0.39210
O1745       O  0.06562388  0.29662544  0.70001638    -0.39910
O1746       O  0.02379196  0.28339272  0.67586645    -0.39980
C1747       C  0.28801041  0.43412619  0.68543038    -0.12260
C1748       C  0.30373741  0.41286910  0.70421800     0.04750
C1749       C  0.30596728  0.41895071  0.73623331    -0.07550
C1750       C  0.28910705  0.44331688  0.74897452    -0.08290
C1751       C  0.27122675  0.46334320  0.73071470    -0.02840
C1752       C  0.27239072  0.45969323  0.69806192     0.03970
N1753       N  0.25755904  0.48066609  0.67716345     0.66480
H1754       H  0.28621910  0.42974857  0.66084409     0.15380
H1755       H  0.28966742  0.44636725  0.77379318     0.15090
N1756       N  0.32306784  0.39914575  0.75663633     0.74180
O1757       O  0.27144201  0.48921526  0.65296409    -0.39270
O1758       O  0.22919103  0.48619940  0.67962787    -0.39210
O1759       O  0.35142015  0.39466503  0.75191069    -0.39910
O1760       O  0.31151466  0.39085680  0.78212980    -0.39980
C1761       C  0.18431548  0.27719188  0.92297403    -0.12260
C1762       C  0.19809413  0.30509708  0.91415194     0.04750
C1763       C  0.22116263  0.31792586  0.93340654    -0.07550
C1764       C  0.23174322  0.30088972  0.95912171    -0.08290
C1765       C  0.22058607  0.27106777  0.96549127    -0.02840
C1766       C  0.19588990  0.25940144  0.94743559     0.03970
N1767       N  0.18309430  0.22912844  0.95232083     0.66480
H1768       H  0.16632863  0.26743045  0.90863756     0.15380
H1769       H  0.25057476  0.30990786  0.97286242     0.15090
N1770       N  0.23498696  0.34731011  0.92638425     0.74180
O1771       O  0.17032580  0.21493476  0.93030486    -0.39270
O1772       O  0.18129112  0.21782592  0.97910301    -0.39210
O1773       O  0.21927355  0.36839448  0.91380189    -0.39910
O1774       O  0.26220690  0.35317587  0.93493061    -0.39980
C1775       C  0.18321495  0.43332296  0.77108788    -0.12260
C1776       C  0.19444065  0.42168860  0.79925232     0.04750
C1777       C  0.21770878  0.43849890  0.81475828    -0.07550
C1778       C  0.23348682  0.46190114  0.79856251    -0.08290
C1779       C  0.22629886  0.46877889  0.76758943    -0.02840
C1780       C  0.19965679  0.45548408  0.75451476     0.03970
N1781       N  0.19086967  0.46120082  0.72319136     0.66480
H1782       H  0.16421465  0.42190051  0.75951365     0.15380
H1783       H  0.25311051  0.47283840  0.80925940     0.15090
N1784       N  0.22675168  0.43090931  0.84584454     0.74180
O1785       O  0.19067439  0.43906412  0.70430965    -0.39270
O1786       O  0.17578811  0.48521837  0.71672729    -0.39210
O1787       O  0.20658211  0.42339119  0.86550641    -0.39910
O1788       O  0.25406658  0.43557986  0.85480463    -0.39980
C1789       C  0.04068168  0.30272904  0.76654356    -0.12260
C1790       C  0.03431910  0.27180580  0.77421844     0.04750
C1791       C  0.04953062  0.25873412  0.79991222    -0.07550
C1792       C  0.07246386  0.27540470  0.81509311    -0.08290
C1793       C  0.08295543  0.30394556  0.80365601    -0.02840
C1794       C  0.06473183  0.31917599  0.78116354     0.03970
N1795       N  0.07087761  0.35055961  0.77230773     0.66480
H1796       H  0.02822264  0.31343241  0.74768251     0.15380
H1797       H  0.08495605  0.26381691  0.83347576     0.15090
N1798       N  0.04440618  0.22759364  0.80944480     0.74180
O1799       O  0.06351050  0.36015509  0.74572330    -0.39270
O1800       O  0.07922971  0.36985938  0.79243810    -0.39210
O1801       O  0.06410347  0.20755123  0.80199958    -0.39910
O1802       O  0.02845521  0.22294987  0.83338045    -0.39980
C1803       C  0.27384751  0.18796496  0.93225790    -0.12260
C1804       C  0.29844276  0.20448510  0.91933790     0.04750
C1805       C  0.30801880  0.23201255  0.93385037    -0.07550
C1806       C  0.28859749  0.24563510  0.95571066    -0.08290
C1807       C  0.26217770  0.23069294  0.96704936    -0.02840
C1808       C  0.25593506  0.20030344  0.95631515     0.03970
N1809       N  0.23100429  0.18197353  0.96793872     0.66480
H1810       H  0.26701400  0.16622860  0.92205660     0.15380
H1811       H  0.29320586  0.26905552  0.96239893     0.15090
N1812       N  0.33628764  0.24723704  0.92519048     0.74180
O1813       O  0.21523089  0.16581433  0.94953202    -0.39270
O1814       O  0.22941455  0.17615566  0.99641186    -0.39210
O1815       O  0.33950767  0.27590193  0.92908549    -0.39910
O1816       O  0.35938569  0.23151683  0.91708360    -0.39980
C1817       C  0.24935947  0.05448775  0.70984791    -0.12260
C1818       C  0.23372597  0.03580589  0.73120685     0.04750
C1819       C  0.20133446  0.03950985  0.73447205    -0.07550
C1820       C  0.18668885  0.06413277  0.71885332    -0.08290
C1821       C  0.20319420  0.08445527  0.69959535    -0.02840
C1822       C  0.23448087  0.07789217  0.69330306     0.03970
N1823       N  0.25236488  0.09663079  0.67257452     0.66480
H1824       H  0.27388373  0.05151639  0.70667397     0.15380
H1825       H  0.16269548  0.06901210  0.72375038     0.15090
N1826       N  0.18300965  0.01996758  0.75422264     0.74180
O1827       O  0.27897865  0.10554040  0.68035138    -0.39270
O1828       O  0.24395143  0.09967002  0.64479107    -0.39210
O1829       O  0.19374544  0.00907355  0.77904479    -0.39910
O1830       O  0.15500082  0.01519661  0.74784288    -0.39980
C1831       C  0.25469620  0.04967326  0.79871672    -0.12260
C1832       C  0.27155733  0.03495679  0.77549167     0.04750
C1833       C  0.30260616  0.04398728  0.77116400    -0.07550
C1834       C  0.31436156  0.07010130  0.78654212    -0.08290
C1835       C  0.29589982  0.08723768  0.80689158    -0.02840
C1836       C  0.26647317  0.07503362  0.81486354     0.03970
N1837       N  0.24706670  0.08949053  0.83747143     0.66480
H1838       H  0.23130990  0.04256630  0.80333690     0.15380
H1839       H  0.33724943  0.07823234  0.78069017     0.15090
N1840       N  0.32249809  0.02747653  0.75094991     0.74180
O1841       O  0.21870673  0.09336234  0.83208020    -0.39270
O1842       O  0.25767497  0.09617788  0.86379407    -0.39210
O1843       O  0.32833251  0.03856639  0.72459840    -0.39910
O1844       O  0.34119151  0.00851210  0.76275805    -0.39980
C1845       C  0.21136253  0.94760258  0.75139809    -0.12260
C1846       C  0.23064543  0.96646507  0.73328009     0.04750
C1847       C  0.22907329  0.96344053  0.70059694    -0.07550
C1848       C  0.21196615  0.93879220  0.68787655    -0.08290
C1849       C  0.19564028  0.91785906  0.70662710    -0.02840
C1850       C  0.19345752  0.92398954  0.73858206     0.03970
N1851       N  0.17589051  0.90446266  0.75888683     0.66480
H1852       H  0.21112444  0.95040944  0.77623858     0.15380
H1853       H  0.21363427  0.93428480  0.66331238     0.15090
N1854       N  0.24534009  0.98370700  0.67985906     0.74180
O1855       O  0.18674376  0.89667233  0.78486012    -0.39270
O1856       O  0.14789113  0.89903414  0.75307815    -0.39210
O1857       O  0.27158436  0.99417527  0.68661668    -0.39910
O1858       O  0.23429828  0.98950580  0.65345597    -0.39980
C1859       C  0.26860713  0.95942310  0.80061569    -0.12260
C1860       C  0.27615046  0.96639316  0.76970199     0.04750
C1861       C  0.29940886  0.94901848  0.75519569    -0.07550
C1862       C  0.31358859  0.92490695  0.77108689    -0.08290
C1863       C  0.30211680  0.91408279  0.79958133    -0.02840
C1864       C  0.28021165  0.93261582  0.81519795     0.03970
N1865       N  0.26682644  0.92306932  0.84390700     0.66480
H1866       H  0.25046002  0.97233794  0.81187895     0.15380
H1867       H  0.33085025  0.91181190  0.75867548     0.15090
N1868       N  0.30562193  0.95207799  0.72285255     0.74180
O1869       O  0.26740755  0.94124176  0.86661946    -0.39270
O1870       O  0.24816653  0.90072236  0.84426568    -0.39210
O1871       O  0.29779438  0.93055223  0.70490502    -0.39910
O1872       O  0.32530257  0.97145747  0.71371359    -0.39980
C1873       C  0.31026182  0.26525692  0.42584912    -0.12260
C1874       C  0.30288330  0.29530850  0.41601176     0.04750
C1875       C  0.28249818  0.31274622  0.43445802    -0.07550
C1876       C  0.26585195  0.29777007  0.45820629    -0.08290
C1877       C  0.27023565  0.26632220  0.46521065    -0.02840
C1878       C  0.29405219  0.25050107  0.44959156     0.03970
N1879       N  0.30113061  0.21888738  0.45603811     0.66480
H1880       H  0.32710358  0.25186845  0.41319148     0.15380
H1881       H  0.24841254  0.31057497  0.47011206     0.15090
N1882       N  0.27807941  0.34520009  0.42914619     0.74180
O1883       O  0.30465313  0.20014533  0.43404631    -0.39270
O1884       O  0.30972766  0.21111209  0.48275666    -0.39210
O1885       O  0.30074593  0.36192298  0.42168777    -0.39910
O1886       O  0.25309161  0.35801300  0.43672987    -0.39980
C1887       C  0.23279268  0.19958241  0.45927677    -0.12260
C1888       C  0.22448933  0.22972207  0.46739670     0.04750
C1889       C  0.19845768  0.24295107  0.45298575    -0.07550
C1890       C  0.18415222  0.22780642  0.42819387    -0.08290
C1891       C  0.19507678  0.19923489  0.41773317    -0.02840
C1892       C  0.21762006  0.18362357  0.43548276     0.03970
N1893       N  0.22661757  0.15248810  0.42820480     0.66480
H1894       H  0.25251505  0.18904925  0.47003843     0.15380
H1895       H  0.16648026  0.23989479  0.41524145     0.15090
N1896       N  0.18755531  0.27267663  0.46184480     0.74180
O1897       O  0.25223568  0.14198149  0.43725437    -0.39270
O1898       O  0.20771896  0.13438613  0.41542573    -0.39210
O1899       O  0.17157437  0.27504429  0.48606827    -0.39910
O1900       O  0.18731652  0.29436129  0.44231223    -0.39980
C1901       C  0.20222928  0.25091832  0.55474686    -0.12260
C1902       C  0.22392775  0.23488662  0.53684448     0.04750
C1903       C  0.22844066  0.20305350  0.54363972    -0.07550
C1904       C  0.21327489  0.18938689  0.56891449    -0.08290
C1905       C  0.19441898  0.20657783  0.58858040    -0.02840
C1906       C  0.18766234  0.23744435  0.58038207     0.03970
N1907       N  0.16920728  0.25672460  0.59987071     0.66480
H1908       H  0.19769407  0.27487936  0.55028456     0.15380
H1909       H  0.21900509  0.16585982  0.57520387     0.15090
N1910       N  0.25078001  0.18470082  0.52796461     0.74180
O1911       O  0.17941682  0.28257134  0.60852238    -0.39270
O1912       O  0.14122388  0.25019017  0.60446447    -0.39210
O1913       O  0.27894883  0.18991256  0.53271771    -0.39910
O1914       O  0.24296068  0.15829386  0.51853438    -0.39980
C1915       C  0.29549145  0.26199691  0.54145287    -0.12260
C1916       C  0.26704932  0.27457000  0.53268779     0.04750
C1917       C  0.25870555  0.30406517  0.54459268    -0.07550
C1918       C  0.27636061  0.31654260  0.56894260    -0.08290
C1919       C  0.30175776  0.30078230  0.58128993    -0.02840
C1920       C  0.31320470  0.27482283  0.56526079     0.03970
N1921       N  0.34144268  0.25991435  0.57444679     0.66480
H1922       H  0.30319001  0.24090227  0.53100998     0.15380
H1923       H  0.26831177  0.33712448  0.58048405     0.15090
N1924       N  0.23241040  0.32139003  0.53354729     0.74180
O1925       O  0.34504382  0.23132096  0.57037285    -0.39270
O1926       O  0.36371355  0.27563145  0.58468732    -0.39210
O1927       O  0.21512021  0.31115525  0.51257258    -0.39910
O1928       O  0.22741221  0.34828438  0.54344868    -0.39980
C1929       C  0.44570730  0.24969937  0.78876757    -0.12260
C1930       C  0.46495438  0.23009481  0.77159745     0.04750
C1931       C  0.46100021  0.19775274  0.77575416    -0.07550
C1932       C  0.43560432  0.18651486  0.79255386    -0.08290
C1933       C  0.41475076  0.20641892  0.80693036    -0.02840
C1934       C  0.42129047  0.23841529  0.80685169     0.03970
N1935       N  0.40173892  0.26010339  0.82244010     0.66480
H1936       H  0.44885274  0.27441280  0.78702796     0.15380
H1937       H  0.43120852  0.16191096  0.79295157     0.15090
N1938       N  0.48214734  0.17552773  0.76403080     0.74180
O1939       O  0.39550263  0.25634245  0.85069349    -0.39270
O1940       O  0.39502891  0.28544317  0.80964304    -0.39210
O1941       O  0.49909836  0.16175671  0.78337588    -0.39910
O1942       O  0.47543490  0.16161446  0.73939469    -0.39980
C1943       C  0.46204487  0.29515901  0.72722232    -0.12260
C1944       C  0.46561268  0.26318655  0.72322949     0.04750
C1945       C  0.44623082  0.24775535  0.70202378    -0.07550
C1946       C  0.42264520  0.26409481  0.68708407    -0.08290
C1947       C  0.41658015  0.29503685  0.69409163    -0.02840
C1948       C  0.43747244  0.31130541  0.71321106     0.03970
N1949       N  0.43304488  0.34354536  0.71985229     0.66480
H1950       H  0.47686295  0.30697751  0.74349460     0.15380
H1951       H  0.40671255  0.25150965  0.67249750     0.15090
N1952       N  0.44864496  0.21510205  0.69711603     0.74180
O1953       O  0.44566349  0.35564053  0.74317295    -0.39270
O1954       O  0.41840081  0.36061704  0.70125723    -0.39210
O1955       O  0.47473951  0.20257780  0.69485656    -0.39910
O1956       O  0.42484614  0.19922851  0.69167137    -0.39980
C1957       C  0.54628290  0.29741698  0.74120112    -0.12260
C1958       C  0.53372704  0.27048001  0.72822653     0.04750
C1959       C  0.54522484  0.26084096  0.69931391    -0.07550
C1960       C  0.57104444  0.27546156  0.68629610    -0.08290
C1961       C  0.58632952  0.29968498  0.70149598    -0.02840
C1962       C  0.57244246  0.31192998  0.72842250     0.03970
N1963       N  0.58623345  0.33684025  0.74508375     0.66480
H1964       H  0.53742514  0.30583171  0.76293388     0.15380
H1965       H  0.58056161  0.26617712  0.66512463     0.15090
N1966       N  0.53185222  0.23554578  0.68315508     0.74180
O1967       O  0.57072904  0.36092690  0.75003177    -0.39270
O1968       O  0.61046554  0.33213992  0.76056766    -0.39210
O1969       O  0.51171476  0.24131847  0.66288907    -0.39910
O1970       O  0.54662875  0.21055558  0.68150672    -0.39980
C1971       C  0.54469187  0.20192427  0.75831026    -0.12260
C1972       C  0.53400434  0.22993004  0.77005708     0.04750
C1973       C  0.54603795  0.24098066  0.79840378    -0.07550
C1974       C  0.57060533  0.22491051  0.81243164    -0.08290
C1975       C  0.58287624  0.19810326  0.79904803    -0.02840
C1976       C  0.56762749  0.18494531  0.77338163     0.03970
N1977       N  0.57639037  0.15522906  0.76149614     0.66480
H1978       H  0.53502419  0.19325169  0.73698767     0.15380
H1979       H  0.58191748  0.23484701  0.83238334     0.15090
N1980       N  0.53522418  0.26920643  0.81209146     0.74180
O1981       O  0.58616086  0.13454052  0.77961830    -0.39270
O1982       O  0.57156147  0.14849673  0.73352811    -0.39210
O1983       O  0.50780646  0.27805150  0.80812021    -0.39910
O1984       O  0.55242980  0.28440277  0.83002235    -0.39980
C1985       C  0.45186986  0.75962879  0.20558336    -0.12260
C1986       C  0.46704456  0.77691605  0.22854526     0.04750
C1987       C  0.45726566  0.80791349  0.23295272    -0.07550
C1988       C  0.43087210  0.81883979  0.21750393    -0.08290
C1989       C  0.41390136  0.80017873  0.19731484    -0.02840
C1990       C  0.42591403  0.77089557  0.18975110     0.03970
N1991       N  0.41024058  0.75068498  0.16886244     0.66480
H1992       H  0.45799756  0.73575181  0.20212058     0.15380
H1993       H  0.42238388  0.84172370  0.22276014     0.15090
N1994       N  0.47256517  0.82851519  0.25372880     0.74180
O1995       O  0.42449780  0.74030975  0.14571262    -0.39270
O1996       O  0.38540736  0.73791409  0.17708890    -0.39210
O1997       O  0.50078669  0.83414770  0.25004913    -0.39910
O1998       O  0.45685428  0.84652222  0.27032955    -0.39980
C1999       C  0.45919664  0.70895657  0.26417623    -0.12260
C2000       C  0.46640904  0.73924006  0.27338160     0.04750
C2001       C  0.45122650  0.75172104  0.29941475    -0.07550
C2002       C  0.42926705  0.73378201  0.31489864    -0.08290
C2003       C  0.41814453  0.70593892  0.30252775    -0.02840
C2004       C  0.43479483  0.69233522  0.27797454     0.03970
N2005       N  0.42614895  0.66291320  0.26551603     0.66480
H2006       H  0.47109423  0.69913891  0.24453041     0.15380
H2007       H  0.41767549  0.74384271  0.33461421     0.15090
N2008       N  0.45537739  0.78325057  0.30900119     0.74180
O2009       O  0.42859113  0.65786712  0.23689135    -0.39270
O2010       O  0.41994388  0.64073769  0.28343943    -0.39210
O2011       O  0.48102220  0.79656146  0.30614996    -0.39910
O2012       O  0.43371272  0.79747216  0.32222619    -0.39980
C2013       C  0.54670872  0.70610135  0.25629504    -0.12260
C2014       C  0.53417224  0.73204544  0.27083523     0.04750
C2015       C  0.54396551  0.73815820  0.30158356    -0.07550
C2016       C  0.56870011  0.72166322  0.31468447    -0.08290
C2017       C  0.58394901  0.69858377  0.29814323    -0.02840
C2018       C  0.57080266  0.68896798  0.26960410     0.03970
N2019       N  0.58305316  0.66326417  0.25267906     0.66480
H2020       H  0.53871223  0.69962946  0.23366301     0.15380
H2021       H  0.57754732  0.72882006  0.33696753     0.15090
N2022       N  0.52974086  0.76109160  0.32015577     0.74180
O2023       O  0.59005404  0.63860385  0.26658520    -0.39270
O2024       O  0.58496578  0.66437010  0.22356240    -0.39210
O2025       O  0.51079388  0.75224690  0.34047434    -0.39910
O2026       O  0.54356237  0.78638447  0.32409136    -0.39980
C2027       C  0.55320982  0.79761067  0.24511980    -0.12260
C2028       C  0.53676271  0.77428949  0.23028232     0.04750
C2029       C  0.54345533  0.76811599  0.19863615    -0.07550
C2030       C  0.56936707  0.78247978  0.18476294    -0.08290
C2031       C  0.58745140  0.80382325  0.20108405    -0.02840
C2032       C  0.57669373  0.81394657  0.23034599     0.03970
N2033       N  0.59086073  0.83936956  0.24632451     0.66480
H2034       H  0.54755968  0.80330770  0.26873535     0.15380
H2035       H  0.57680744  0.77505106  0.16208981     0.15090
N2036       N  0.52533227  0.74721150  0.18029791     0.74180
O2037       O  0.59925342  0.86306870  0.23152278    -0.39270
O2038       O  0.59291845  0.83924080  0.27545379    -0.39210
O2039       O  0.52330588  0.75121051  0.15143941    -0.39910
O2040       O  0.51234650  0.72406865  0.19220361    -0.39980
C2041       C  0.44564202  0.25078500  0.28282282    -0.12260
C2042       C  0.46406975  0.26968644  0.26391300     0.04750
C2043       C  0.46067527  0.30219569  0.26654135    -0.07550
C2044       C  0.43629600  0.31411908  0.28436599    -0.08290
C2045       C  0.41594220  0.29467959  0.30039713    -0.02840
C2046       C  0.42236272  0.26279820  0.30157094     0.03970
N2047       N  0.40341688  0.24184784  0.31898485     0.66480
H2048       H  0.44841212  0.22603123  0.28212598     0.15380
H2049       H  0.43152724  0.33862995  0.28345836     0.15090
N2050       N  0.47995267  0.32363145  0.25020355     0.74180
O2051       O  0.39500994  0.21658944  0.30722705    -0.39270
O2052       O  0.39934880  0.24618260  0.34752799    -0.39210
O2053       O  0.48488292  0.32052491  0.22170035    -0.39910
O2054       O  0.48822017  0.34831365  0.26321071    -0.39980
C2055       C  0.45870164  0.20290923  0.22509010    -0.12260
C2056       C  0.46445847  0.23408310  0.21763478     0.04750
C2057       C  0.44718891  0.24749429  0.19341637    -0.07550
C2058       C  0.42421457  0.23049950  0.17866766    -0.08290
C2059       C  0.41415905  0.20196350  0.19046856    -0.02840
C2060       C  0.43345478  0.18672292  0.21209808     0.03970
N2061       N  0.42714684  0.15567610  0.22194074     0.66480
H2062       H  0.47208782  0.19205358  0.24320257     0.15380
H2063       H  0.41071396  0.24234557  0.16119757     0.15090
N2064       N  0.44847042  0.27973373  0.18679270     0.74180
O2065       O  0.43503300  0.14669859  0.24859236    -0.39270
O2066       O  0.41770570  0.13603473  0.20264778    -0.39210
O2067       O  0.45749801  0.28825562  0.16038701    -0.39910
O2068       O  0.43061921  0.29728627  0.20157555    -0.39980
C2069       C  0.54014526  0.20222851  0.23033581    -0.12260
C2070       C  0.53329142  0.23221102  0.22000661     0.04750
C2071       C  0.55055227  0.24453365  0.19506146    -0.07550
C2072       C  0.57570774  0.22789243  0.18331143    -0.08290
C2073       C  0.58486956  0.19968381  0.19635003    -0.02840
C2074       C  0.56563045  0.18572476  0.21883304     0.03970
N2075       N  0.57247199  0.15560341  0.23115848     0.66480
H2076       H  0.52682245  0.19236851  0.24900346     0.15380
H2077       H  0.59001100  0.23856003  0.16575954     0.15090
N2078       N  0.54425726  0.27465704  0.18271221     0.74180
O2079       O  0.56323960  0.14797105  0.25778634    -0.39270
O2080       O  0.58535083  0.13556423  0.21447066    -0.39210
O2081       O  0.51690100  0.28406524  0.18046164    -0.39910
O2082       O  0.56564848  0.29075941  0.17118329    -0.39980
C2083       C  0.54545518  0.29868853  0.25499370    -0.12260
C2084       C  0.53282726  0.27023502  0.26405119     0.04750
C2085       C  0.54304613  0.25672599  0.29214054    -0.07550
C2086       C  0.56668398  0.27125151  0.30898801    -0.08290
C2087       C  0.58116083  0.29831399  0.29829088    -0.02840
C2088       C  0.56841306  0.31351857  0.27232014     0.03970
N2089       N  0.57979604  0.34292173  0.26202164     0.66480
H2090       H  0.53858588  0.30894727  0.23334252     0.15380
H2091       H  0.57578775  0.25974561  0.32929806     0.15090
N2092       N  0.53208263  0.22708444  0.30250351     0.74180
O2093       O  0.58214792  0.34870491  0.23349271    -0.39270
O2094       O  0.58298607  0.36461310  0.28115052    -0.39210
O2095       O  0.54934908  0.20966541  0.31829563    -0.39910
O2096       O  0.50453530  0.21902082  0.29801577    -0.39980
loop_ 
_geom_bond_atom_site_label_1 
_geom_bond_atom_site_label_2 
_geom_bond_distance 
_geom_bond_site_symmetry_2 
_ccdc_geom_bond_type 
C1            C2   1.371       .  D
C1         C2070   1.501       .  S
C1         C2084   1.498       .  S
C2         C2042   1.506       .  S
C2         C2056   1.506       .  S
C3            C4   1.371       .  D
C3         C2014   1.517       .  S
C3         C2028   1.498       .  S
C4         C1986   1.514       .  S
C4         C2000   1.495       .  S
C5            C6   1.368       .  D
C5         C1958   1.509       .  S
C5         C1972   1.486       .  S
C6         C1930   1.516       .  S
C6         C1944   1.497       .  S
C7            C8   1.370       .  D
C7         C1902   1.513       .  S
C7         C1916   1.502       .  S
C8         C1877   1.509       .  S
C8         C1888   1.498       .  S
C9           C10   1.367   1_565  D
C9         C1846   1.508       .  S
C9         C1860   1.497       .  S
C10        C1818   1.498       .  S
C10        C1832   1.506       .  S
O11         Cr29   2.017       .  S
O11          C19   1.270       .  A
O12         Cr29   2.003       .  S
O12          C13   1.271       .  A
C13          O14   1.262       .  A
C13        C1835   1.499       .  S
O14         Cr30   1.981       .  S
O15         Cr30   1.985       .  S
O15          C16   1.263       .  A
C16          O17   1.262       .  A
C16        C1804   1.484       .  S
O17         Cr31   1.985       .  S
O18         Cr31   1.971       .  S
O18          C19   1.261       .  A
C19        C1933   1.483       .  S
O20         Cr29   1.987       .  S
O20          C28   1.261       .  A
O21         Cr29   2.006       .  S
O21          C22   1.263       .  A
C22          O23   1.261       .  A
C22          C88   1.464       .  S
O23         Cr30   1.974       .  S
O24         Cr30   2.000       .  S
O24          C25   1.262       .  A
C25          O26   1.255       .  A
C25          C50   1.457       .  S
O26         Cr31   1.970       .  S
O27         Cr31   1.973       .  S
O27          C28   1.252       .  A
C28          C69   1.447       .  S
Cr29         O32   1.781       .  S
Cr30         O32   1.770       .  S
Cr31         O32   1.780       .  S
O33         Cr51   1.974       .  S
O33          C41   1.262       .  A
O34         Cr51   1.978       .  S
O34          C35   1.264       .  A
C35          O36   1.266       .  A
C35        C1793   1.495       .  S
O36         Cr52   1.995       .  S
O37         Cr52   1.982       .  S
O37          C38   1.266       .  A
C38          O39   1.263       .  A
C38        C1776   1.487       .  S
O39         Cr53   1.982       .  S
O40         Cr53   2.014       .  S
O40          C41   1.267       .  A
C41        C1762   1.486       .  S
O42         Cr51   1.994       .  S
O42          C50   1.259       .  A
O43         Cr51   1.984       .  S
O43          C44   1.262       .  A
C44          O45   1.255       .  A
C44          C94   1.446       .  S
O45         Cr52   1.976       .  S
O46         Cr52   1.981       .  S
O46          C47   1.258       .  A
C47          O48   1.263       .  A
C47          C72   1.469       .  S
O48         Cr53   2.002       .  S
O49         Cr53   1.976       .  S
O49          C50   1.258       .  A
Cr51         O54   1.765       .  S
Cr52         O54   1.776       .  S
Cr53         O54   1.782       .  S
O55         Cr73   2.016       .  S
O55          C63   1.269       .  A
O56         Cr73   1.990       .  S
O56          C57   1.264       .  A
C57          O58   1.261       .  A
C57        C1919   1.486       .  S
O58         Cr74   1.984       .  S
O59         Cr74   1.976       .  S
O59          C60   1.264       .  A
C60          O61   1.269       .  A
C60        C1947   1.481       .  S
O61         Cr75   2.011       .  S
O62         Cr75   1.976       .  S
O62          C63   1.262       .  A
C63        C1748   1.487       .  S
O64         Cr73   1.977       .  S
O64          C72   1.258       .  A
O65         Cr73   2.008       .  S
O65          C66   1.267       .  A
C66          O67   1.256       .  A
C66          C91   1.457       .  S
O67         Cr74   1.961       .  S
O68         Cr74   1.981       .  S
O68          C69   1.254       .  A
C69          O70   1.261       .  A
O70         Cr75   1.980       .  S
O71         Cr75   2.011       .  S
O71          C72   1.264       .  A
Cr73         O76   1.778       .  S
Cr74         O76   1.779       .  S
Cr75         O76   1.772       .  S
O77         Cr95   1.998       .  S
O77          C85   1.269       .  A
O78         Cr95   2.011       .  S
O78          C79   1.266       .  A
C79          O80   1.259       .  A
C79        C1821   1.487       .  S
O80         Cr96   1.974       .  S
O81         Cr96   2.019       .  S
O81          C82   1.271       .  A
C82          O83   1.259       .  A
C82        C1905   1.485       .  S
O83         Cr97   1.967       .  S
O84         Cr97   1.974       .  S
O84          C85   1.264       .  A
C85        C1737   1.494       .  S
O86         Cr95   1.989       .  S
O86          C94   1.259       .  A
O87         Cr95   1.965       .  S
O87          C88   1.255       .  A
C88          O89   1.266       .  A
O89         Cr96   2.012       .  S
O90         Cr96   1.972       .  S
O90          C91   1.257       .  A
C91          O92   1.258       .  A
O92         Cr97   1.996       .  S
O93         Cr97   1.972       .  S
O93          C94   1.260       .  A
Cr95         O98   1.785       .  S
Cr96         O98   1.774       .  S
Cr97         O98   1.766       .  S
C99         C100   1.365   1_455  D
C99        C1734   1.499       .  S
C99        C1790   1.496       .  S
C100       C1709   1.500       .  S
C100       C1720   1.500       .  S
C101        C102   1.368       .  D
C101       C1751   1.509       .  S
C101       C1779   1.496       .  S
C102       C1678   1.490       .  S
C102       C1692   1.507       .  S
C103        C104   1.373       .  D
C103       C1650   1.514       .  S
C103       C1667   1.505       .  S
C104       C1622   1.506       .  S
C104       C1636   1.505       .  S
C105        C106   1.364   1_556  D
C105       C1597   1.494       .  S
C105       C1608   1.498       .  S
C106       C1566   1.504       .  S
C106       C1580   1.503       .  S
O107       Cr125   2.018       .  S
O107        C115   1.267       .  A
O108       Cr125   1.977       .  S
O108        C109   1.265       .  A
C109        O110   1.268       .  A
C109       C1583   1.482       .  S
O110       Cr126   2.009       .  S
O111       Cr126   1.998       .  S
O111        C112   1.268       .  A
C112        O113   1.262       .  A
C112       C1552   1.496       .  S
O113       Cr127   1.983       .  S
O114       Cr127   1.972       .  S
O114        C115   1.260       .  A
C115       C1639   1.485       .  S
O116       Cr125   1.971       .  S
O116        C124   1.256       .  A
O117       Cr125   1.993       .  S
O117        C118   1.260       .  A
C118        O119   1.261       .  A
C118        C184   1.458       .  S
O119       Cr126   1.983       .  S
O120       Cr126   2.007       .  S
O120        C121   1.264       .  A
C121        O122   1.259       .  A
C121        C143   1.459       .  S
O122       Cr127   1.967       .  S
O123       Cr127   2.002       .  S
O123        C124   1.262       .  A
C124        C162   1.460       .  S
Cr125       O128   1.780       .  S
Cr126       O128   1.780       .  S
Cr127       O128   1.769       .  S
O129       Cr147   1.993       .  S
O129        C137   1.265       .  A
O130       Cr147   1.968       .  S
O130        C131   1.263       .  A
C131        O132   1.268       .  A
C131       C1524   1.490       .  S
O132       Cr148   1.996       .  S
O133       Cr148   2.009       .  S
O133        C134   1.267       .  A
C134        O135   1.260       .  A
C134       C1510   1.484       .  S
O135       Cr149   1.972       .  S
O136       Cr149   1.985       .  S
O136        C137   1.265       .  A
C137       C1538   1.494       .  S
O138       Cr147   1.988       .  S
O138        C146   1.256       .  A
O139       Cr147   1.988       .  S
O139        C140   1.263       .  A
C140        O141   1.257       .  A
C140        C165   1.455       .  S
O141       Cr148   1.984       .  S
O142       Cr148   1.971       .  S
O142        C143   1.256       .  A
C143        O144   1.261       .  A
O144       Cr149   1.996       .  S
O145       Cr149   1.976       .  S
O145        C146   1.259       .  A
C146        C190   1.456       .  S
Cr147       O150   1.773       .  S
Cr148       O150   1.787       .  S
Cr149       O150   1.773       .  S
O151       Cr169   1.977       .  S
O151        C159   1.261       .  A
O152       Cr169   1.986       .  S
O152        C153   1.263       .  A
C153        O154   1.270       .  A
C153       C1625   1.501       .  S
O154       Cr170   2.005       .  S
O155       Cr170   2.010       .  S
O155        C156   1.269       .  A
C156        O157   1.267       .  A
C156       C1499   1.496       .  S
O157       Cr171   1.984       .  S
O158       Cr171   1.998       .  S
O158        C159   1.265       .  A
C159       C2087   1.492       .  S
O160       Cr169   1.994       .  S
O160        C168   1.259       .  A
O161       Cr169   1.972       .  S
O161        C162   1.258       .  A
C162        O163   1.262       .  A
O163       Cr170   2.002       .  S
O164       Cr170   1.989       .  S
O164        C165   1.262       .  A
C165        O166   1.256       .  A
O166       Cr171   1.982       .  S
O167       Cr171   1.974       .  S
O167        C168   1.258       .  A
C168        C187   1.458       .  S
Cr169       O172   1.775       .  S
Cr170       O172   1.779       .  S
Cr171       O172   1.780       .  S
O173       Cr191   2.011       .  S
O173        C181   1.266       .  A
O174       Cr191   1.969       .  S
O174        C175   1.259       .  A
C175        O176   1.268       .  A
C175       C1569   1.474       .  S
O176       Cr192   2.008       .  S
O177       Cr192   1.981       .  S
O177        C178   1.264       .  A
C178        O179   1.268       .  A
C178       C2073   1.489       .  S
O179       Cr193   2.011       .  S
O180       Cr193   1.968       .  S
O180        C181   1.258       .  A
C181       C1485   1.475       .  S
O182       Cr191   1.956       .  S
O182        C190   1.253       .  A
O183       Cr191   2.000       .  S
O183        C184   1.261       .  A
C184        O185   1.261       .  A
O185       Cr192   1.979       .  S
O186       Cr192   2.014       .  S
O186        C187   1.266       .  A
C187        O188   1.255       .  A
O188       Cr193   1.959       .  S
O189       Cr193   2.011       .  S
O189        C190   1.267       .  A
Cr191       O194   1.778       .  S
Cr192       O194   1.770       .  S
Cr193       O194   1.770       .  S
C195        C196   1.367   1_545  D
C195       C1482   1.500       .  S
C195       C1541   1.499       .  S
C196       C1454   1.504       .  S
C196       C1471   1.506       .  S
C197        C198   1.371       .  D
C197       C1496   1.510       .  S
C197       C1527   1.493       .  S
C198       C1426   1.509       .  S
C198       C1440   1.517       .  S
C199        C200   1.370   1_556  D
C199       C1398   1.505       .  S
C199       C1415   1.503       .  S
C200       C1370   1.505       .  S
C200       C1384   1.504       .  S
O201       Cr219   1.983       .  S
O201        C209   1.267       .  A
O202       Cr219   1.988       .  S
O202        C203   1.261       .  A
C203        O204   1.265       .  A
C203       C1653   1.489       .  S
O204       Cr220   1.992       .  S
O205       Cr220   1.998       .  S
O205        C206   1.265       .  A
C206        O207   1.261       .  A
C206       C1356   1.478       .  S
O207       Cr221   1.977       .  S
O208       Cr221   2.008       .  S
O208        C209   1.269       .  A
C209       C1387   1.486       .  S
O210       Cr219   1.985       .  S
O210        C218   1.254       .  A
O211       Cr219   1.969       .  S
O211        C212   1.260       .  A
C212        O213   1.259       .  A
C212        C278   1.443       .  S
O213       Cr220   1.983       .  S
O214       Cr220   1.963       .  S
O214        C215   1.252       .  A
C215        O216   1.266       .  A
C215        C234   1.464       .  S
O216       Cr221   2.014       .  S
O217       Cr221   1.987       .  S
O217        C218   1.262       .  A
C218        C256   1.457       .  S
Cr219       O222   1.776       .  S
Cr220       O222   1.787       .  S
Cr221       O222   1.780       .  S
O223       Cr241   2.004       .  S
O223        C231   1.266       .  A
O224       Cr241   1.987       .  S
O224        C225   1.264       .  A
C225        O226   1.266       .  A
C225       C1328   1.491       .  S
O226       Cr242   1.984       .  S
O227       Cr242   1.982       .  S
O227        C228   1.263       .  A
C228        O229   1.267       .  A
C228       C1342   1.494       .  S
O229       Cr243   1.999       .  S
O230       Cr243   1.979       .  S
O230        C231   1.262       .  A
C231       C1457   1.490       .  S
O232       Cr241   1.969       .  S
O232        C240   1.256       .  A
O233       Cr241   1.997       .  S
O233        C234   1.260       .  A
C234        O235   1.263       .  A
O235       Cr242   1.984       .  S
O236       Cr242   1.994       .  S
O236        C237   1.261       .  A
C237        O238   1.259       .  A
C237        C284   1.463       .  S
O238       Cr243   1.984       .  S
O239       Cr243   1.995       .  S
O239        C240   1.263       .  A
C240        C259   1.454       .  S
Cr241       O244   1.782       .  S
Cr242       O244   1.767       .  S
Cr243       O244   1.773       .  S
O245       Cr263   2.014       .  S
O245        C253   1.272       .  A
O246       Cr263   1.997       .  S
O246        C247   1.265       .  A
C247        O248   1.262       .  A
C247       C1373   1.486       .  S
O248       Cr264   1.981       .  S
O249       Cr264   1.996       .  S
O249        C250   1.266       .  A
C250        O251   1.265       .  A
C250       C1468   1.488       .  S
O251       Cr265   1.984       .  S
O252       Cr265   1.961       .  S
O252        C253   1.258       .  A
C253       C2031   1.495       .  S
O254       Cr263   1.983       .  S
O254        C262   1.256       .  A
O255       Cr263   1.983       .  S
O255        C256   1.260       .  A
C256        O257   1.258       .  A
O257       Cr264   1.983       .  S
O258       Cr264   1.975       .  S
O258        C259   1.255       .  A
C259        O260   1.256       .  A
O260       Cr265   1.986       .  S
O261       Cr265   1.989       .  S
O261        C262   1.265       .  A
C262        C281   1.453       .  S
Cr263       O266   1.788       .  S
Cr264       O266   1.783       .  S
Cr265       O266   1.771       .  S
O267       Cr285   1.974       .  S
O267        C275   1.262       .  A
O268       Cr285   1.975       .  S
O268        C269   1.262       .  A
C269        O270   1.273       .  A
C269       C1664   1.497       .  S
O270       Cr286   2.011       .  S
O271       Cr286   1.972       .  S
O271        C272   1.259       .  A
C272        O273   1.271       .  A
C272       C2017   1.497       .  S
O273       Cr287   2.005       .  S
O274       Cr287   2.018       .  S
O274        C275   1.269       .  A
C275       C1314   1.488       .  S
O276       Cr285   1.989       .  S
O276        C284   1.258       .  A
O277       Cr285   1.989       .  S
O277        C278   1.262       .  A
C278        O279   1.250       .  A
O279       Cr286   1.965       .  S
O280       Cr286   1.987       .  S
O280        C281   1.262       .  A
C281        O282   1.258       .  A
O282       Cr287   1.980       .  S
O283       Cr287   1.986       .  S
O283        C284   1.256       .  A
Cr285       O288   1.771       .  S
Cr286       O288   1.781       .  S
Cr287       O288   1.791       .  S
C289        C290   1.371       .  D
C289       C1317   1.505       .  S
C289       C1345   1.498       .  S
C290       C1286   1.507       .  S
C290       C1303   1.515       .  S
C291        C292   1.373   1_565  D
C291       C1258   1.535       .  S
C291       C1272   1.504       .  S
C292       C1230   1.512       .  S
C292       C1244   1.484       .  S
O293       Cr311   1.983       .  S
O293        C301   1.265       .  A
O294       Cr311   1.985       .  S
O294        C295   1.264       .  A
C295        O296   1.262       .  A
C295       C1975   1.481       .  S
O296       Cr312   1.981       .  S
O297       Cr312   1.992       .  S
O297        C298   1.265       .  A
C298        O299   1.266       .  A
C298       C1594   1.489       .  S
O299       Cr313   1.988       .  S
O300       Cr313   1.980       .  S
O300        C301   1.266       .  A
C301       C1247   1.487       .  S
O302       Cr311   1.977       .  S
O302        C310   1.254       .  A
O303       Cr311   1.969       .  S
O303        C304   1.256       .  A
C304        O305   1.261       .  A
C304        C373   1.454       .  S
O305       Cr312   1.993       .  S
O306       Cr312   1.972       .  S
O306        C307   1.257       .  A
C307        O308   1.259       .  A
C307        C329   1.453       .  S
O308       Cr313   1.989       .  S
O309       Cr313   1.991       .  S
O309        C310   1.263       .  A
C310        C351   1.452       .  S
Cr311       O314   1.779       .  S
Cr312       O314   1.777       .  S
Cr313       O314   1.770       .  S
O315       Cr333   2.008       .  S
O315        C323   1.269       .  A
O316       Cr333   2.001       .  S
O316        C317   1.269       .  A
C317        O318   1.264       .  A
C317       C1706   1.500       .  S
O318       Cr334   1.977       .  S
O319       Cr334   1.977       .  S
O319        C320   1.258       .  A
C320        O321   1.265       .  A
C320       C1611   1.482       .  S
O321       Cr335   2.000       .  S
O322       Cr335   1.971       .  S
O322        C323   1.261       .  A
C323       C1219   1.478       .  S
O324       Cr333   1.996       .  S
O324        C332   1.263       .  A
O325       Cr333   1.998       .  S
O325        C326   1.262       .  A
C326        O327   1.259       .  A
C326        C354   1.459       .  S
O327       Cr334   1.973       .  S
O328       Cr334   1.995       .  S
O328        C329   1.262       .  A
C329        O330   1.255       .  A
O330       Cr335   1.968       .  S
O331       Cr335   1.989       .  S
O331        C332   1.256       .  A
C332        C370   1.462       .  S
Cr333       O336   1.780       .  S
Cr334       O336   1.772       .  S
Cr335       O336   1.780       .  S
O337       Cr355   1.967       .  S
O337        C345   1.259       .  A
O338       Cr355   1.979       .  S
O338        C339   1.260       .  A
C339        O340   1.270       .  A
C339       C1443   1.492       .  S
O340       Cr356   1.999       .  S
O341       Cr356   1.991       .  S
O341        C342   1.265       .  A
C342        O343   1.267       .  A
C342       C1233   1.492       .  S
O343       Cr357   1.990       .  S
O344       Cr357   2.008       .  S
O344        C345   1.267       .  A
C345       C1723   1.474       .  S
O346       Cr355   1.994       .  S
O346        C354   1.260       .  A
O347       Cr355   1.975       .  S
O347        C348   1.260       .  A
C348        O349   1.259       .  A
C348        C376   1.456       .  S
O349       Cr356   1.995       .  S
O350       Cr356   1.984       .  S
O350        C351   1.263       .  A
C351        O352   1.258       .  A
O352       Cr357   1.983       .  S
O353       Cr357   1.975       .  S
O353        C354   1.255       .  A
Cr355       O358   1.771       .  S
Cr356       O358   1.771       .  S
Cr357       O358   1.785       .  S
O359       Cr377   2.018       .  S
O359        C367   1.267       .  A
O360       Cr377   1.977       .  S
O360        C361   1.265       .  A
C361        O362   1.267       .  A
C361       C1202   1.480       .  S
O362       Cr378   2.007       .  S
O363       Cr378   1.993       .  S
O363        C364   1.267       .  A
C364        O365   1.268       .  A
C364       C1961   1.497       .  S
O365       Cr379   2.004       .  S
O366       Cr379   1.973       .  S
O366        C367   1.260       .  A
C367       C1429   1.488       .  S
O368       Cr377   1.961       .  S
O368        C376   1.253       .  A
O369       Cr377   1.998       .  S
O369        C370   1.260       .  A
C370        O371   1.262       .  A
O371       Cr378   1.987       .  S
O372       Cr378   2.002       .  S
O372        C373   1.263       .  A
C373        O374   1.256       .  A
O374       Cr379   1.962       .  S
O375       Cr379   2.007       .  S
O375        C376   1.266       .  A
Cr377       O380   1.781       .  S
Cr378       O380   1.774       .  S
Cr379       O380   1.770       .  S
C381        C382   1.366       .  D
C381       C1205   1.501       .  S
C381       C1216   1.508       .  S
C382       C1174   1.505       .  S
C382       C1188   1.495       .  S
O383       Cr401   1.994       .  S
O383        C391   1.268       .  A
O384       Cr401   2.004       .  S
O384        C385   1.265       .  A
C385        O386   1.262       .  A
C385       C1401   1.487       .  S
O386       Cr402   1.981       .  S
O387       Cr402   2.027       .  S
O387        C388   1.271       .  A
C388        O389   1.263       .  A
C388       C1160   1.491       .  S
O389       Cr403   1.973       .  S
O390       Cr403   1.976       .  S
O390        C391   1.262       .  A
C391       C1191   1.483       .  S
O392       Cr401   1.990       .  S
O392        C400   1.258       .  A
O393       Cr401   1.965       .  S
O393        C394   1.257       .  A
C394        O395   1.267       .  A
C394        C438   1.467       .  S
O395       Cr402   2.016       .  S
O396       Cr402   1.970       .  S
O396        C397   1.257       .  A
C397        O398   1.257       .  A
C397        C419   1.455       .  S
O398       Cr403   1.993       .  S
O399       Cr403   1.979       .  S
O399        C400   1.262       .  A
C400        C463   1.451       .  S
Cr401       O404   1.786       .  S
Cr402       O404   1.779       .  S
Cr403       O404   1.771       .  S
O405       Cr423   2.018       .  S
O405        C413   1.271       .  A
O406       Cr423   1.981       .  S
O406        C407   1.264       .  A
C407        O408   1.269       .  A
C407       C1300   1.490       .  S
O408       Cr424   2.008       .  S
O409       Cr424   1.985       .  S
O409        C410   1.263       .  A
C410        O411   1.263       .  A
C410       C1146   1.490       .  S
O411       Cr425   1.993       .  S
O412       Cr425   1.981       .  S
O412        C413   1.265       .  A
C413       C1275   1.489       .  S
O414       Cr423   1.978       .  S
O414        C422   1.259       .  A
O415       Cr423   2.009       .  S
O415        C416   1.264       .  A
C416        O417   1.258       .  A
C416        C466   1.469       .  S
O417       Cr424   1.981       .  S
O418       Cr424   2.005       .  S
O418        C419   1.265       .  A
C419        O420   1.253       .  A
O420       Cr425   1.957       .  S
O421       Cr425   1.977       .  S
O421        C422   1.252       .  A
C422        C444   1.443       .  S
Cr423       O426   1.772       .  S
Cr424       O426   1.776       .  S
Cr425       O426   1.781       .  S
O427       Cr445   2.024       .  S
O427        C435   1.270       .  A
O428       Cr445   1.996       .  S
O428        C429   1.268       .  A
C429        O430   1.268       .  A
C429       C1412   1.499       .  S
O430       Cr446   1.985       .  S
O431       Cr446   1.977       .  S
O431        C432   1.260       .  A
C432        O433   1.265       .  A
C432       C1132   1.483       .  S
O433       Cr447   2.006       .  S
O434       Cr447   1.965       .  S
O434        C435   1.260       .  A
C435       C1261   1.480       .  S
O436       Cr445   1.979       .  S
O436        C444   1.259       .  A
O437       Cr445   2.013       .  S
O437        C438   1.263       .  A
C438        O439   1.259       .  A
O439       Cr446   1.971       .  S
O440       Cr446   2.004       .  S
O440        C441   1.263       .  A
C441        O442   1.249       .  A
C441        C460   1.451       .  S
O442       Cr447   1.952       .  S
O443       Cr447   1.974       .  S
O443        C444   1.252       .  A
Cr445       O448   1.786       .  S
Cr446       O448   1.766       .  S
Cr447       O448   1.778       .  S
O449       Cr467   1.980       .  S
O449        C457   1.262       .  A
O450       Cr467   1.984       .  S
O450        C451   1.263       .  A
C451        O452   1.270       .  A
C451       C1118   1.497       .  S
O452       Cr468   2.002       .  S
O453       Cr468   1.986       .  S
O453        C454   1.263       .  A
C454        O455   1.268       .  A
C454       C1177   1.493       .  S
O455       Cr469   1.996       .  S
O456       Cr469   1.994       .  S
O456        C457   1.267       .  A
C457       C1289   1.489       .  S
O458       Cr467   1.992       .  S
O458        C466   1.259       .  A
O459       Cr467   1.975       .  S
O459        C460   1.260       .  A
C460        O461   1.256       .  A
O461       Cr468   1.983       .  S
O462       Cr468   1.990       .  S
O462        C463   1.262       .  A
C463        O464   1.255       .  A
O464       Cr469   1.976       .  S
O465       Cr469   1.992       .  S
O465        C466   1.259       .  A
Cr467       O470   1.775       .  S
Cr468       O470   1.781       .  S
Cr469       O470   1.780       .  S
C471        C472   1.367       .  D
C471       C1121   1.502       .  S
C471       C1135   1.507       .  S
C472       C1090   1.506       .  S
C472       C1104   1.503       .  S
O473       Cr491   1.996       .  S
O473        C481   1.264       .  A
O474       Cr491   1.973       .  S
O474        C475   1.263       .  A
C475        O476   1.269       .  A
C475       C1062   1.478       .  S
O476       Cr492   2.016       .  S
O477       Cr492   1.983       .  S
O477        C478   1.265       .  A
C478        O479   1.267       .  A
C478       C1695   1.491       .  S
O479       Cr493   2.008       .  S
O480       Cr493   1.985       .  S
O480        C481   1.263       .  A
C481       C1079   1.489       .  S
O482       Cr491   1.963       .  S
O482        C490   1.257       .  A
O483       Cr491   1.995       .  S
O483        C484   1.258       .  A
C484        O485   1.262       .  A
C484        C534   1.463       .  S
O485       Cr492   1.988       .  S
O486       Cr492   2.010       .  S
O486        C487   1.266       .  A
C487        O488   1.256       .  A
C487        C550   1.459       .  S
O488       Cr493   1.963       .  S
O489       Cr493   2.008       .  S
O489        C490   1.265       .  A
C490        C509   1.459       .  S
Cr491       O494   1.774       .  S
Cr492       O494   1.776       .  S
Cr493       O494   1.778       .  S
O495       Cr513   1.980       .  S
O495        C503   1.264       .  A
O496       Cr513   2.003       .  S
O496        C497   1.264       .  A
C497        O498   1.263       .  A
C497       C1849   1.486       .  S
O498       Cr514   1.984       .  S
O499       Cr514   2.024       .  S
O499        C500   1.270       .  A
C500        O501   1.263       .  A
C500       C1048   1.491       .  S
O501       Cr515   1.974       .  S
O502       Cr515   2.000       .  S
O502        C503   1.267       .  A
C503       C1034   1.481       .  S
O504       Cr513   1.992       .  S
O504        C512   1.258       .  A
O505       Cr513   1.957       .  S
O505        C506   1.254       .  A
C506        O507   1.266       .  A
C506        C528   1.459       .  S
O507       Cr514   2.011       .  S
O508       Cr514   1.965       .  S
O508        C509   1.256       .  A
C509        O510   1.261       .  A
O510       Cr515   2.006       .  S
O511       Cr515   1.978       .  S
O511        C512   1.261       .  A
C512        C556   1.454       .  S
Cr513       O516   1.781       .  S
Cr514       O516   1.779       .  S
Cr515       O516   1.772       .  S
O517       Cr535   2.006       .  S
O517        C525   1.269       .  A
O518       Cr535   2.003       .  S
O518        C519   1.267       .  A
C519        O520   1.263       .  A
C519       C1863   1.498       .  S
O520       Cr536   1.975       .  S
O521       Cr536   1.971       .  S
O521        C522   1.257       .  A
C522        O523   1.267       .  A
C522       C1107   1.482       .  S
O523       Cr537   2.015       .  S
O524       Cr537   1.977       .  S
O524        C525   1.263       .  A
C525       C1020   1.483       .  S
O526       Cr535   1.986       .  S
O526        C534   1.261       .  A
O527       Cr535   2.006       .  S
O527        C528   1.263       .  A
C528        O529   1.260       .  A
O529       Cr536   1.965       .  S
O530       Cr536   1.999       .  S
O530        C531   1.261       .  A
C531        O532   1.256       .  A
C531        C553   1.459       .  S
O532       Cr537   1.975       .  S
O533       Cr537   1.995       .  S
O533        C534   1.260       .  A
Cr535       O538   1.783       .  S
Cr536       O538   1.767       .  S
Cr537       O538   1.781       .  S
O539       Cr557   1.976       .  S
O539        C547   1.265       .  A
O540       Cr557   1.983       .  S
O540        C541   1.262       .  A
C541        O542   1.263       .  A
C541       C1681   1.485       .  S
O542       Cr558   1.986       .  S
O543       Cr558   1.976       .  S
O543        C544   1.261       .  A
C544        O545   1.270       .  A
C544       C1093   1.497       .  S
O545       Cr559   2.006       .  S
O546       Cr559   2.016       .  S
O546        C547   1.269       .  A
C547       C1006   1.487       .  S
O548       Cr557   1.976       .  S
O548        C556   1.254       .  A
O549       Cr557   1.978       .  S
O549        C550   1.259       .  A
C550        O551   1.259       .  A
O551       Cr558   1.992       .  S
O552       Cr558   1.973       .  S
O552        C553   1.259       .  A
C553        O554   1.264       .  A
O554       Cr559   2.001       .  S
O555       Cr559   1.993       .  S
O555        C556   1.262       .  A
Cr557       O560   1.774       .  S
Cr558       O560   1.775       .  S
Cr559       O560   1.780       .  S
C561        C562   1.371   1_655  D
C561       C1149   1.501       .  S
C561       C1163   1.506       .  S
C562       C1051   1.505       .  S
C562       C1076   1.501       .  S
C563        C564   1.369       .  D
C563       C1009   1.501       .  S
C563       C1037   1.505       .  S
C564        C978   1.505       .  S
C564        C992   1.498       .  S
C565        C566   1.362   1_455  D
C565        C950   1.495       .  S
C565        C964   1.500       .  S
C566       C1331   1.500       .  S
C566       C1359   1.508       .  S
O567       Cr585   1.994       .  S
O567        C575   1.267       .  A
O568       Cr585   1.984       .  S
O568        C569   1.264       .  A
C569        O570   1.269       .  A
C569       C1989   1.489       .  S
O570       Cr586   2.006       .  S
O571       Cr586   1.976       .  S
O571        C572   1.261       .  A
C572        O573   1.264       .  A
C572        C925   1.484       .  S
O573       Cr587   2.004       .  S
O574       Cr587   1.985       .  S
O574        C575   1.267       .  A
C575        C939   1.489       .  S
O576       Cr585   1.979       .  S
O576        C584   1.260       .  A
O577       Cr585   1.994       .  S
O577        C578   1.259       .  A
C578        O579   1.257       .  A
C578        C622   1.457       .  S
O579       Cr586   1.973       .  S
O580       Cr586   2.007       .  S
O580        C581   1.265       .  A
C581        O582   1.255       .  A
C581        C600   1.462       .  S
O582       Cr587   1.968       .  S
O583       Cr587   1.982       .  S
O583        C584   1.256       .  A
C584        C644   1.447       .  S
Cr585       O588   1.773       .  S
Cr586       O588   1.773       .  S
Cr587       O588   1.783       .  S
O589       Cr607   1.985       .  S
O589        C597   1.262       .  A
O590       Cr607   1.990       .  S
O590        C591   1.265       .  A
C591        O592   1.269       .  A
C591        C908   1.496       .  S
O592       Cr608   1.995       .  S
O593       Cr608   2.013       .  S
O593        C594   1.268       .  A
C594        O595   1.262       .  A
C594        C995   1.487       .  S
O595       Cr609   1.976       .  S
O596       Cr609   1.984       .  S
O596        C597   1.264       .  A
C597        C967   1.488       .  S
O598       Cr607   1.996       .  S
O598        C606   1.262       .  A
O599       Cr607   1.975       .  S
O599        C600   1.259       .  A
C600        O601   1.261       .  A
O601       Cr608   2.003       .  S
O602       Cr608   1.988       .  S
O602        C603   1.262       .  A
C603        O604   1.254       .  A
C603        C628   1.450       .  S
O604       Cr609   1.977       .  S
O605       Cr609   1.975       .  S
O605        C606   1.256       .  A
C606        C647   1.459       .  S
Cr607       O610   1.775       .  S
Cr608       O610   1.780       .  S
Cr609       O610   1.777       .  S
O611       Cr629   1.977       .  S
O611        C619   1.263       .  A
O612       Cr629   1.972       .  S
O612        C613   1.262       .  A
C613        O614   1.264       .  A
C613       C2003   1.495       .  S
O614       Cr630   1.993       .  S
O615       Cr630   2.014       .  S
O615        C616   1.271       .  A
C616        O617   1.264       .  A
C616        C894   1.493       .  S
O617       Cr631   1.979       .  S
O618       Cr631   2.011       .  S
O618        C619   1.269       .  A
C619        C981   1.486       .  S
O620       Cr629   1.978       .  S
O620        C628   1.253       .  A
O621       Cr629   1.968       .  S
O621        C622   1.257       .  A
C622        O623   1.265       .  A
O623       Cr630   2.000       .  S
O624       Cr630   1.974       .  S
O624        C625   1.256       .  A
C625        O626   1.262       .  A
C625        C650   1.463       .  S
O626       Cr631   2.002       .  S
O627       Cr631   1.988       .  S
O627        C628   1.261       .  A
Cr629       O632   1.776       .  S
Cr630       O632   1.783       .  S
Cr631       O632   1.774       .  S
O633       Cr651   1.975       .  S
O633        C641   1.263       .  A
O634       Cr651   1.991       .  S
O634        C635   1.268       .  A
C635        O636   1.265       .  A
C635        C883   1.493       .  S
O636       Cr652   1.998       .  S
O637       Cr652   1.987       .  S
O637        C638   1.266       .  A
C638        O639   1.268       .  A
C638        C953   1.490       .  S
O639       Cr653   1.995       .  S
O640       Cr653   1.990       .  S
O640        C641   1.264       .  A
C641        C866   1.496       .  S
O642       Cr651   1.985       .  S
O642        C650   1.260       .  A
O643       Cr651   1.973       .  S
O643        C644   1.253       .  A
C644        O645   1.262       .  A
O645       Cr652   1.988       .  S
O646       Cr652   1.990       .  S
O646        C647   1.258       .  A
C647        O648   1.258       .  A
O648       Cr653   1.981       .  S
O649       Cr653   1.991       .  S
O649        C650   1.260       .  A
Cr651       O654   1.776       .  S
Cr652       O654   1.778       .  S
Cr653       O654   1.784       .  S
C655        C656   1.376   1_556  D
C655       C1023   1.497       .  S
C655       C1065   1.521       .  S
C656        C880   1.498       .  S
C656        C936   1.508       .  S
C657        C658   1.372       .  D
C657        C869   1.494       .  S
C657        C897   1.513       .  S
C658        C841   1.514       .  S
C658        C852   1.497       .  S
C659        C660   1.375   1_556  D
C659       C1765   1.495       .  S
C659       C1807   1.511       .  S
C660        C810   1.492       .  S
C660        C824   1.521       .  S
C661        C662   1.364   1_565  D
C661        C911   1.499       .  S
C661        C922   1.502       .  S
C662        C782   1.496       .  S
C662        C799   1.499       .  S
O663       Cr681   1.974       .  S
O663        C671   1.258       .  A
O664       Cr681   1.983       .  S
O664        C665   1.265       .  A
C665        O666   1.267       .  A
C665       C1874   1.496       .  S
O666       Cr682   1.991       .  S
O667       Cr682   2.015       .  S
O667        C668   1.268       .  A
C668        O669   1.262       .  A
C668        C855   1.487       .  S
O669       Cr683   1.975       .  S
O670       Cr683   2.008       .  S
O670        C671   1.266       .  A
C671       C2045   1.479       .  S
O672       Cr681   2.000       .  S
O672        C680   1.262       .  A
O673       Cr681   1.972       .  S
O673        C674   1.260       .  A
C674        O675   1.263       .  A
C674        C699   1.462       .  S
O675       Cr682   2.005       .  S
O676       Cr682   1.976       .  S
O676        C677   1.259       .  A
C677        O678   1.258       .  A
C677        C718   1.450       .  S
O678       Cr683   1.988       .  S
O679       Cr683   1.978       .  S
O679        C680   1.257       .  A
C680        C740   1.462       .  S
Cr681       O684   1.769       .  S
Cr682       O684   1.783       .  S
Cr683       O684   1.779       .  S
O685       Cr703   2.005       .  S
O685        C693   1.267       .  A
O686       Cr703   1.989       .  S
O686        C687   1.266       .  A
C687        O688   1.269       .  A
C687        C768   1.499       .  S
O688       Cr704   1.996       .  S
O689       Cr704   1.981       .  S
O689        C690   1.261       .  A
C690        O691   1.263       .  A
C690       C1891   1.482       .  S
O691       Cr705   1.992       .  S
O692       Cr705   1.977       .  S
O692        C693   1.265       .  A
C693        C785   1.478       .  S
O694       Cr703   1.987       .  S
O694        C702   1.262       .  A
O695       Cr703   2.000       .  S
O695        C696   1.259       .  A
C696        O697   1.257       .  A
C696        C721   1.458       .  S
O697       Cr704   1.966       .  S
O698       Cr704   2.009       .  S
O698        C699   1.265       .  A
C699        O700   1.256       .  A
O700       Cr705   1.966       .  S
O701       Cr705   1.983       .  S
O701        C702   1.255       .  A
C702        C746   1.454       .  S
Cr703       O706   1.781       .  S
Cr704       O706   1.772       .  S
Cr705       O706   1.779       .  S
O707       Cr725   1.974       .  S
O707        C715   1.260       .  A
O708       Cr725   2.010       .  S
O708        C709   1.269       .  A
C709        O710   1.262       .  A
C709        C838   1.481       .  S
O710       Cr726   1.974       .  S
O711       Cr726   2.010       .  S
O711        C712   1.266       .  A
C712        O713   1.257       .  A
C712        C757   1.478       .  S
O713       Cr727   1.969       .  S
O714       Cr727   2.012       .  S
O714        C715   1.268       .  A
C715        C827   1.482       .  S
O716       Cr725   2.019       .  S
O716        C724   1.267       .  A
O717       Cr725   1.970       .  S
O717        C718   1.259       .  A
C718        O719   1.260       .  A
O719       Cr726   1.997       .  S
O720       Cr726   1.955       .  S
O720        C721   1.254       .  A
C721        O722   1.266       .  A
O722       Cr727   2.012       .  S
O723       Cr727   1.963       .  S
O723        C724   1.254       .  A
C724        C743   1.463       .  S
Cr725       O728   1.768       .  S
Cr726       O728   1.778       .  S
Cr727       O728   1.773       .  S
O729       Cr747   2.002       .  S
O729        C737   1.268       .  A
O730       Cr747   2.003       .  S
O730        C731   1.268       .  A
C731        O732   1.265       .  A
C731       C2059   1.502       .  S
O732       Cr748   1.979       .  S
O733       Cr748   1.993       .  S
O733        C734   1.263       .  A
C734        O735   1.259       .  A
C734        C813   1.485       .  S
O735       Cr749   1.970       .  S
O736       Cr749   1.985       .  S
O736        C737   1.268       .  A
C737        C796   1.485       .  S
O738       Cr747   2.001       .  S
O738        C746   1.263       .  A
O739       Cr747   1.991       .  S
O739        C740   1.260       .  A
C740        O741   1.259       .  A
O741       Cr748   1.982       .  S
O742       Cr748   1.993       .  S
O742        C743   1.260       .  A
C743        O744   1.261       .  A
O744       Cr749   1.984       .  S
O745       Cr749   1.968       .  S
O745        C746   1.250       .  A
Cr747       O750   1.782       .  S
Cr748       O750   1.780       .  S
Cr749       O750   1.777       .  S
C751        C752   1.370   1_655  D
C751       C1513   1.497       .  S
C751       C1555   1.504       .  S
C752        C754   1.498       .  S
C752        C771   1.509       .  S
C753        C754   1.404       .  A
C753        C758   1.397       .  A
C753        H760   1.082       .  S
C754        C755   1.422       .  A
C755        C756   1.408       .  A
C755        N762   1.436       .  S
C756        C757   1.402       .  A
C756        H761   1.084       .  S
C757        C758   1.412       .  A
C758        N759   1.437       .  S
N759        O763   1.263       .  A
N759        O764   1.262       .  A
N762        O765   1.258       .  A
N762        O766   1.263       .  A
C767        C768   1.405       .  A
C767        C772   1.397       .  A
C767        H774   1.084       .  S
C768        C769   1.419       .  A
C769        C770   1.415       .  A
C769        N776   1.436       .  S
C770        C771   1.408       .  A
C770        H775   1.079       .  S
C771        C772   1.412       .  A
C772        N773   1.426       .  S
N773        O777   1.263       .  A
N773        O778   1.261       .  A
N776        O779   1.262       .  A
N776        O780   1.263       .  A
C781        C782   1.406       .  A
C781        C786   1.412       .  A
C781        H788   1.081       .  S
C782        C783   1.416       .  A
C783        C784   1.398       .  A
C783        N790   1.436       .  S
C784        C785   1.400       .  A
C784        H789   1.084       .  S
C785        C786   1.417       .  A
C786        N787   1.441       .  S
N787        O791   1.263       .  A
N787        O792   1.263       .  A
N790        O793   1.259       .  A
N790        O794   1.263       .  A
C795        C796   1.402       .  A
C795        C800   1.405       .  A
C795        H802   1.084       .  S
C796        C797   1.417       .  A
C797        C798   1.410       .  A
C797        N804   1.441       .  S
C798        C799   1.403       .  A
C798        H803   1.081       .  S
C799        C800   1.418       .  A
C800        N801   1.440       .  S
N801        O805   1.263       .  A
N801        O806   1.261       .  A
N804        O807   1.263       .  A
N804        O808   1.263       .  A
C809        C810   1.396       .  A
C809        C814   1.394       .  A
C809        H816   1.083       .  S
C810        C811   1.427       .  A
C811        C812   1.412       .  A
C811        N818   1.444       .  S
C812        C813   1.404       .  A
C812        H817   1.083       .  S
C813        C814   1.415       .  A
C814        N815   1.441       .  S
N815        O819   1.263       .  A
N815        O820   1.263       .  A
N818        O821   1.260       .  A
N818        O822   1.263       .  A
C823        C824   1.410       .  A
C823        C828   1.402       .  A
C823        H830   1.072       .  S
C824        C825   1.421       .  A
C825        C826   1.406       .  A
C825        N832   1.421       .  S
C826        C827   1.398       .  A
C826        H831   1.084       .  S
C827        C828   1.411       .  A
C828        N829   1.436       .  S
N829        O833   1.263       .  A
N829        O834   1.262       .  A
N832        O835   1.262       .  A
N832        O836   1.262       .  A
C837        C838   1.399       .  A
C837        C842   1.404       .  A
C837        H844   1.084       .  S
C838        C839   1.414       .  A
C839        C840   1.405       .  A
C839        N846   1.437       .  S
C840        C841   1.407       .  A
C840        H845   1.078       .  S
C841        C842   1.420       .  A
C842        N843   1.423       .  S
N843        O847   1.262       .  A
N843        O848   1.262       .  A
N846        O849   1.263       .  A
N846        O850   1.262       .  A
C851        C852   1.402       .  A
C851        C856   1.397       .  A
C851        H858   1.082       .  S
C852        C853   1.421       .  A
C853        C854   1.414       .  A
C853        N860   1.441       .  S
C854        C855   1.407       .  A
C854        H859   1.083       .  S
C855        C856   1.414       .  A
C856        N857   1.436       .  S
N857        O861   1.263       .  A
N857        O862   1.262       .  A
N860        O863   1.261       .  A
N860        O864   1.263       .  A
C865        C866   1.407       .  A
C865        C870   1.397       .  A
C865        H872   1.083       .  S
C866        C867   1.417       .  A
C867        C868   1.413       .  A
C867        N874   1.437       .  S
C868        C869   1.409       .  A
C868        H873   1.083       .  S
C869        C870   1.413       .  A
C870        N871   1.440       .  S
N871        O875   1.263       .  A
N871        O876   1.259       .  A
N874        O877   1.262       .  A
N874        O878   1.263       .  A
C879        C880   1.402       .  A
C879        C884   1.406       .  A
C879        H886   1.083       .  S
C880        C881   1.423       .  A
C881        C882   1.411       .  A
C881        N888   1.446       .  S
C882        C883   1.404       .  A
C882        H887   1.083       .  S
C883        C884   1.419       .  A
C884        N885   1.440       .  S
N885        O889   1.263       .  A
N885        O890   1.263       .  A
N888        O891   1.261       .  A
N888        O892   1.263       .  A
C893        C894   1.403       .  A
C893        C898   1.410       .  A
C893        H900   1.084       .  S
C894        C895   1.415       .  A
C895        C896   1.405       .  A
C895        N902   1.435       .  S
C896        C897   1.408       .  A
C896        H901   1.082       .  S
C897        C898   1.423       .  A
C898        N899   1.433       .  S
N899        O903   1.263       .  A
N899        O904   1.258       .  A
N902        O905   1.263       .  A
N902        O906   1.262       .  A
C907        C908   1.407       .  A
C907        C912   1.409       .  A
C907        H914   1.083       .  S
C908        C909   1.423       .  A
C909        C910   1.401       .  A
C909        N916   1.437       .  S
C910        C911   1.400       .  A
C910        H915   1.083       .  S
C911        C912   1.413       .  A
C912        N913   1.428       .  S
N913        O917   1.261       .  A
N913        O918   1.262       .  A
N916        O919   1.263       .  A
N916        O920   1.263       .  A
C921        C922   1.407       .  A
C921        C926   1.411       .  A
C921        H928   1.078       .  S
C922        C923   1.412       .  A
C923        C924   1.400       .  A
C923        N930   1.430       .  S
C924        C925   1.401       .  A
C924        H929   1.084       .  S
C925        C926   1.416       .  A
C926        N927   1.441       .  S
N927        O931   1.263       .  A
N927        O932   1.263       .  A
N930        O933   1.263       .  A
N930        O934   1.260       .  A
C935        C936   1.407       .  A
C935        C940   1.405       .  A
C935        H942   1.078       .  S
C936        C937   1.416       .  A
C937        C938   1.405       .  A
C937        N944   1.430       .  S
C938        C939   1.406       .  A
C938        H943   1.084       .  S
C939        C940   1.411       .  A
C940        N941   1.437       .  S
N941        O945   1.263       .  A
N941        O946   1.263       .  A
N944        O947   1.260       .  A
N944        O948   1.263       .  A
C949        C950   1.405       .  A
C949        C954   1.403       .  A
C949        H956   1.082       .  S
C950        C951   1.422       .  A
C951        C952   1.409       .  A
C951        N958   1.447       .  S
C952        C953   1.406       .  A
C952        H957   1.083       .  S
C953        C954   1.414       .  A
C954        N955   1.432       .  S
N955        O959   1.262       .  A
N955        O960   1.262       .  A
N958        O961   1.260       .  A
N958        O962   1.263       .  A
C963        C964   1.407       .  A
C963        C968   1.410       .  A
C963        H970   1.082       .  S
C964        C965   1.410       .  A
C965        C966   1.397       .  A
C965        N972   1.425       .  S
C966        C967   1.403       .  A
C966        H971   1.085       .  S
C967        C968   1.416       .  A
C968        N969   1.437       .  S
N969        O973   1.263       .  A
N969        O974   1.262       .  A
N972        O975   1.263       .  A
N972        O976   1.259       .  A
C977        C978   1.404       .  A
C977        C982   1.403       .  A
C977        H984   1.078       .  S
C978        C979   1.414       .  A
C979        C980   1.405       .  A
C979        N986   1.426       .  S
C980        C981   1.405       .  A
C980        H985   1.084       .  S
C981        C982   1.415       .  A
C982        N983   1.436       .  S
N983        O987   1.263       .  A
N983        O988   1.262       .  A
N986        O989   1.262       .  A
N986        O990   1.262       .  A
C991        C992   1.402       .  A
C991        C996   1.399       .  A
C991        H998   1.080       .  S
C992        C993   1.422       .  A
C993        C994   1.414       .  A
C993       N1000   1.441       .  S
C994        C995   1.407       .  A
C994        H999   1.083       .  S
C995        C996   1.413       .  A
C996        N997   1.436       .  S
N997       O1001   1.263       .  A
N997       O1002   1.262       .  A
N1000      O1003   1.260       .  A
N1000      O1004   1.263       .  A
C1005      C1006   1.403       .  A
C1005      C1010   1.402       .  A
C1005      H1012   1.084       .  S
C1006      C1007   1.418       .  A
C1007      C1008   1.414       .  A
C1007      N1014   1.441       .  S
C1008      C1009   1.407       .  A
C1008      H1013   1.083       .  S
C1009      C1010   1.414       .  A
C1010      N1011   1.437       .  S
N1011      O1015   1.261       .  A
N1011      O1016   1.263       .  A
N1014      O1017   1.263       .  A
N1014      O1018   1.263       .  A
C1019      C1020   1.404       .  A
C1019      C1024   1.410       .  A
C1019      H1026   1.084       .  S
C1020      C1021   1.411       .  A
C1021      C1022   1.401       .  A
C1021      N1028   1.438       .  S
C1022      C1023   1.403       .  A
C1022      H1027   1.084       .  S
C1023      C1024   1.423       .  A
C1024      N1025   1.441       .  S
N1025      O1029   1.263       .  A
N1025      O1030   1.259       .  A
N1028      O1031   1.263       .  A
N1028      O1032   1.263       .  A
C1033      C1034   1.403       .  A
C1033      C1038   1.407       .  A
C1033      H1040   1.084       .  S
C1034      C1035   1.413       .  A
C1035      C1036   1.403       .  A
C1035      N1042   1.437       .  S
C1036      C1037   1.407       .  A
C1036      H1041   1.083       .  S
C1037      C1038   1.419       .  A
C1038      N1039   1.431       .  S
N1039      O1043   1.263       .  A
N1039      O1044   1.259       .  A
N1042      O1045   1.263       .  A
N1042      O1046   1.262       .  A
C1047      C1048   1.405       .  A
C1047      C1052   1.404       .  A
C1047      H1054   1.084       .  S
C1048      C1049   1.417       .  A
C1049      C1050   1.414       .  A
C1049      N1056   1.441       .  S
C1050      C1051   1.409       .  A
C1050      H1055   1.081       .  S
C1051      C1052   1.415       .  A
C1052      N1053   1.437       .  S
N1053      O1057   1.261       .  A
N1053      O1058   1.263       .  A
N1056      O1059   1.263       .  A
N1056      O1060   1.263       .  A
C1061      C1062   1.396       .  A
C1061      C1066   1.395       .  A
C1061      H1068   1.084       .  S
C1062      C1063   1.411       .  A
C1063      C1064   1.415       .  A
C1063      N1070   1.443       .  S
C1064      C1065   1.413       .  A
C1064      H1069   1.064       .  S
C1065      C1066   1.421       .  A
C1066      N1067   1.426       .  S
N1067      O1071   1.262       .  A
N1067      O1072   1.263       .  A
N1070      O1073   1.263       .  A
N1070      O1074   1.263       .  A
C1075      C1076   1.403       .  A
C1075      C1080   1.403       .  A
C1075      H1082   1.083       .  S
C1076      C1077   1.417       .  A
C1077      C1078   1.407       .  A
C1077      N1084   1.433       .  S
C1078      C1079   1.403       .  A
C1078      H1083   1.083       .  S
C1079      C1080   1.418       .  A
C1080      N1081   1.440       .  S
N1081      O1085   1.263       .  A
N1081      O1086   1.263       .  A
N1084      O1087   1.260       .  A
N1084      O1088   1.263       .  A
C1089      C1090   1.399       .  A
C1089      C1094   1.398       .  A
C1089      H1096   1.078       .  S
C1090      C1091   1.425       .  A
C1091      C1092   1.414       .  A
C1091      N1098   1.436       .  S
C1092      C1093   1.404       .  A
C1092      H1097   1.083       .  S
C1093      C1094   1.420       .  A
C1094      N1095   1.439       .  S
N1095      O1099   1.263       .  A
N1095      O1100   1.263       .  A
N1098      O1101   1.263       .  A
N1098      O1102   1.257       .  A
C1103      C1104   1.403       .  A
C1103      C1108   1.400       .  A
C1103      H1110   1.080       .  S
C1104      C1105   1.419       .  A
C1105      C1106   1.407       .  A
C1105      N1112   1.430       .  S
C1106      C1107   1.403       .  A
C1106      H1111   1.084       .  S
C1107      C1108   1.414       .  A
C1108      N1109   1.436       .  S
N1109      O1113   1.262       .  A
N1109      O1114   1.263       .  A
N1112      O1115   1.262       .  A
N1112      O1116   1.260       .  A
C1117      C1118   1.405       .  A
C1117      C1122   1.415       .  A
C1117      H1124   1.083       .  S
C1118      C1119   1.420       .  A
C1119      C1120   1.398       .  A
C1119      N1126   1.438       .  S
C1120      C1121   1.399       .  A
C1120      H1125   1.079       .  S
C1121      C1122   1.425       .  A
C1122      N1123   1.439       .  S
N1123      O1127   1.263       .  A
N1123      O1128   1.258       .  A
N1126      O1129   1.262       .  A
N1126      O1130   1.263       .  A
C1131      C1132   1.403       .  A
C1131      C1136   1.410       .  A
C1131      H1138   1.084       .  S
C1132      C1133   1.408       .  A
C1133      C1134   1.397       .  A
C1133      N1140   1.429       .  S
C1134      C1135   1.406       .  A
C1134      H1139   1.078       .  S
C1135      C1136   1.425       .  A
C1136      N1137   1.435       .  S
N1137      O1141   1.263       .  A
N1137      O1142   1.257       .  A
N1140      O1143   1.262       .  A
N1140      O1144   1.262       .  A
C1145      C1146   1.404       .  A
C1145      C1150   1.406       .  A
C1145      H1152   1.083       .  S
C1146      C1147   1.418       .  A
C1147      C1148   1.403       .  A
C1147      N1154   1.439       .  S
C1148      C1149   1.403       .  A
C1148      H1153   1.084       .  S
C1149      C1150   1.417       .  A
C1150      N1151   1.432       .  S
N1151      O1155   1.263       .  A
N1151      O1156   1.260   1_655  A
N1154      O1157   1.263       .  A
N1154      O1158   1.263       .  A
C1159      C1160   1.405       .  A
C1159      C1164   1.404       .  A
C1159      H1166   1.084       .  S
C1160      C1161   1.416       .  A
C1161      C1162   1.415       .  A
C1161      N1168   1.441       .  S
C1162      C1163   1.410       .  A
C1162      H1167   1.081       .  S
C1163      C1164   1.416       .  A
C1164      N1165   1.437       .  S
N1165      O1169   1.261       .  A
N1165      O1170   1.263       .  A
N1168      O1171   1.263       .  A
N1168      O1172   1.263       .  A
C1173      C1174   1.402       .  A
C1173      C1178   1.405       .  A
C1173      H1180   1.079       .  S
C1174      C1175   1.414       .  A
C1175      C1176   1.406       .  A
C1175      N1182   1.425       .  S
C1176      C1177   1.403       .  A
C1176      H1181   1.083       .  S
C1177      C1178   1.421       .  A
C1178      N1179   1.440       .  S
N1179      O1183   1.263       .  A
N1179      O1184   1.263       .  A
N1182      O1185   1.262       .  A
N1182      O1186   1.261       .  A
C1187      C1188   1.397       .  A
C1187      C1192   1.399       .  A
C1187      H1194   1.080       .  S
C1188      C1189   1.423       .  A
C1189      C1190   1.413       .  A
C1189      N1196   1.442       .  S
C1190      C1191   1.403       .  A
C1190      H1195   1.083       .  S
C1191      C1192   1.415       .  A
C1192      N1193   1.442       .  S
N1193      O1197   1.263       .  A
N1193      O1198   1.263       .  A
N1196      O1199   1.260       .  A
N1196      O1200   1.263       .  A
C1201      C1202   1.402       .  A
C1201      C1206   1.400       .  A
C1201      H1208   1.084       .  S
C1202      C1203   1.414       .  A
C1203      C1204   1.406       .  A
C1203      N1210   1.432       .  S
C1204      C1205   1.408       .  A
C1204      H1209   1.083       .  S
C1205      C1206   1.413       .  A
C1206      N1207   1.432       .  S
N1207      O1211   1.263       .  A
N1207      O1212   1.260       .  A
N1210      O1213   1.262       .  A
N1210      O1214   1.262       .  A
C1215      C1216   1.405       .  A
C1215      C1220   1.401       .  A
C1215      H1222   1.082       .  S
C1216      C1217   1.421       .  A
C1217      C1218   1.405       .  A
C1217      N1224   1.428       .  S
C1218      C1219   1.400       .  A
C1218      H1223   1.084       .  S
C1219      C1220   1.414       .  A
C1220      N1221   1.437       .  S
N1221      O1225   1.262       .  A
N1221      O1226   1.263       .  A
N1224      O1227   1.262       .  A
N1224      O1228   1.259       .  A
C1229      C1230   1.405       .  A
C1229      C1234   1.404       .  A
C1229      H1236   1.077       .  S
C1230      C1231   1.421       .  A
C1231      C1232   1.411       .  A
C1231      N1238   1.432       .  S
C1232      C1233   1.403       .  A
C1232      H1237   1.083       .  S
C1233      C1234   1.416       .  A
C1234      N1235   1.441       .  S
N1235      O1239   1.263       .  A
N1235      O1240   1.263       .  A
N1238      O1241   1.260       .  A
N1238      O1242   1.263       .  A
C1243      C1244   1.406       .  A
C1243      C1248   1.409       .  A
C1243      H1250   1.083       .  S
C1244      C1245   1.415       .  A
C1245      C1246   1.400       .  A
C1245      N1252   1.442       .  S
C1246      C1247   1.407       .  A
C1246      H1251   1.084       .  S
C1247      C1248   1.416       .  A
C1248      N1249   1.436       .  S
N1249      O1253   1.263       .  A
N1249      O1254   1.262       .  A
N1252      O1255   1.263       .  A
N1252      O1256   1.262       .  A
C1257      C1258   1.406       .  A
C1257      C1262   1.395       .  A
C1257      H1264   1.074       .  S
C1258      C1259   1.432       .  A
C1259      C1260   1.410       .  A
C1259      N1266   1.424       .  S
C1260      C1261   1.394       .  A
C1260      H1265   1.084       .  S
C1261      C1262   1.414       .  A
C1262      N1263   1.436       .  S
N1263      O1267   1.261       .  A
N1263      O1268   1.264       .  A
N1266      O1269   1.263   1_565  A
N1266      O1270   1.262       .  A
C1271      C1272   1.402       .  A
C1271      C1276   1.401       .  A
C1271      H1278   1.084       .  S
C1272      C1273   1.424       .  A
C1273      C1274   1.411       .  A
C1273      N1280   1.441       .  S
C1274      C1275   1.405       .  A
C1274      H1279   1.084       .  S
C1275      C1276   1.414       .  A
C1276      N1277   1.432       .  S
N1277      O1281   1.262       .  A
N1277      O1282   1.261       .  A
N1280      O1283   1.263       .  A
N1280      O1284   1.261       .  A
C1285      C1286   1.408       .  A
C1285      C1290   1.409       .  A
C1285      H1292   1.081       .  S
C1286      C1287   1.412       .  A
C1287      C1288   1.399       .  A
C1287      N1294   1.426       .  S
C1288      C1289   1.403       .  A
C1288      H1293   1.084       .  S
C1289      C1290   1.415       .  A
C1290      N1291   1.436       .  S
N1291      O1295   1.263       .  A
N1291      O1296   1.262       .  A
N1294      O1297   1.263       .  A
N1294      O1298   1.261       .  A
C1299      C1300   1.403       .  A
C1299      C1304   1.409       .  A
C1299      H1306   1.084       .  S
C1300      C1301   1.414       .  A
C1301      C1302   1.406       .  A
C1301      N1308   1.436       .  S
C1302      C1303   1.408       .  A
C1302      H1307   1.078       .  S
C1303      C1304   1.423       .  A
C1304      N1305   1.434       .  S
N1305      O1309   1.263       .  A
N1305      O1310   1.258       .  A
N1308      O1311   1.262       .  A
N1308      O1312   1.263       .  A
C1313      C1314   1.403       .  A
C1313      C1318   1.401       .  A
C1313      H1320   1.084       .  S
C1314      C1315   1.416       .  A
C1315      C1316   1.413       .  A
C1315      N1322   1.441       .  S
C1316      C1317   1.409       .  A
C1316      H1321   1.080       .  S
C1317      C1318   1.418       .  A
C1318      N1319   1.437       .  S
N1319      O1323   1.259       .  A
N1319      O1324   1.263       .  A
N1322      O1325   1.263       .  A
N1322      O1326   1.263       .  A
C1327      C1328   1.406       .  A
C1327      C1332   1.398       .  A
C1327      H1334   1.084       .  S
C1328      C1329   1.413       .  A
C1329      C1330   1.406       .  A
C1329      N1336   1.429       .  S
C1330      C1331   1.408       .  A
C1330      H1335   1.080       .  S
C1331      C1332   1.417       .  A
C1332      N1333   1.436       .  S
N1333      O1337   1.263       .  A
N1333      O1338   1.259       .  A
N1336      O1339   1.262       .  A
N1336      O1340   1.262       .  A
C1341      C1342   1.408       .  A
C1341      C1346   1.403       .  A
C1341      H1348   1.083       .  S
C1342      C1343   1.415       .  A
C1343      C1344   1.407       .  A
C1343      N1350   1.437       .  S
C1344      C1345   1.405       .  A
C1344      H1349   1.075       .  S
C1345      C1346   1.415       .  A
C1346      N1347   1.439       .  S
N1347      O1351   1.261       .  A
N1347      O1352   1.263       .  A
N1350      O1353   1.263       .  A
N1350      O1354   1.263       .  A
C1355      C1356   1.403       .  A
C1355      C1360   1.404       .  A
C1355      H1362   1.083       .  S
C1356      C1357   1.412       .  A
C1357      C1358   1.408       .  A
C1357      N1364   1.442       .  S
C1358      C1359   1.406       .  A
C1358      H1363   1.073       .  S
C1359      C1360   1.415       .  A
C1360      N1361   1.436       .  S
N1361      O1365   1.262       .  A
N1361      O1366   1.263       .  A
N1364      O1367   1.263       .  A
N1364      O1368   1.263       .  A
C1369      C1370   1.405       .  A
C1369      C1374   1.403       .  A
C1369      H1376   1.079       .  S
C1370      C1371   1.419       .  A
C1371      C1372   1.408       .  A
C1371      N1378   1.433       .  S
C1372      C1373   1.405       .  A
C1372      H1377   1.084       .  S
C1373      C1374   1.413       .  A
C1374      N1375   1.437       .  S
N1375      O1379   1.263       .  A
N1375      O1380   1.262       .  A
N1378      O1381   1.259       .  A
N1378      O1382   1.263       .  A
C1383      C1384   1.404       .  A
C1383      C1388   1.398       .  A
C1383      H1390   1.077       .  S
C1384      C1385   1.421       .  A
C1385      C1386   1.414       .  A
C1385      N1392   1.440       .  S
C1386      C1387   1.408       .  A
C1386      H1391   1.084       .  S
C1387      C1388   1.411       .  A
C1388      N1389   1.437       .  S
N1389      O1393   1.263       .  A
N1389      O1394   1.262       .  A
N1392      O1395   1.261       .  A
N1392      O1396   1.263       .  A
C1397      C1398   1.406       .  A
C1397      C1402   1.400       .  A
C1397      H1404   1.082       .  S
C1398      C1399   1.423       .  A
C1399      C1400   1.414       .  A
C1399      N1406   1.441       .  S
C1400      C1401   1.407       .  A
C1400      H1405   1.083       .  S
C1401      C1402   1.412       .  A
C1402      N1403   1.436       .  S
N1403      O1407   1.263       .  A
N1403      O1408   1.262       .  A
N1406      O1409   1.260       .  A
N1406      O1410   1.263       .  A
C1411      C1412   1.406       .  A
C1411      C1416   1.395       .  A
C1411      H1418   1.084       .  S
C1412      C1413   1.419       .  A
C1413      C1414   1.417       .  A
C1413      N1420   1.437       .  S
C1414      C1415   1.409       .  A
C1414      H1419   1.083       .  S
C1415      C1416   1.412       .  A
C1416      N1417   1.430       .  S
N1417      O1421   1.262       .  A
N1417      O1422   1.262       .  A
N1420      O1423   1.262       .  A
N1420      O1424   1.263       .  A
C1425      C1426   1.410       .  A
C1425      C1430   1.410       .  A
C1425      H1432   1.081       .  S
C1426      C1427   1.422       .  A
C1427      C1428   1.405       .  A
C1427      N1434   1.440       .  S
C1428      C1429   1.402       .  A
C1428      H1433   1.083       .  S
C1429      C1430   1.413       .  A
C1430      N1431   1.441       .  S
N1431      O1435   1.263       .  A
N1431      O1436   1.263       .  A
N1434      O1437   1.257       .  A
N1434      O1438   1.263       .  A
C1439      C1440   1.402       .  A
C1439      C1444   1.401       .  A
C1439      H1446   1.082       .  S
C1440      C1441   1.424       .  A
C1441      C1442   1.405       .  A
C1441      N1448   1.426       .  S
C1442      C1443   1.398       .  A
C1442      H1447   1.084       .  S
C1443      C1444   1.422       .  A
C1444      N1445   1.436       .  S
N1445      O1449   1.263       .  A
N1445      O1450   1.263       .  A
N1448      O1451   1.261       .  A
N1448      O1452   1.262       .  A
C1453      C1454   1.405       .  A
C1453      C1458   1.402       .  A
C1453      H1460   1.076       .  S
C1454      C1455   1.422       .  A
C1455      C1456   1.409       .  A
C1455      N1462   1.439       .  S
C1456      C1457   1.405       .  A
C1456      H1461   1.083       .  S
C1457      C1458   1.413       .  A
C1458      N1459   1.440       .  S
N1459      O1463   1.263       .  A
N1459      O1464   1.263       .  A
N1462      O1465   1.258       .  A
N1462      O1466   1.263       .  A
C1467      C1468   1.403       .  A
C1467      C1472   1.406       .  A
C1467      H1474   1.083       .  S
C1468      C1469   1.416       .  A
C1469      C1470   1.404       .  A
C1469      N1476   1.440       .  S
C1470      C1471   1.405       .  A
C1470      H1475   1.080       .  S
C1471      C1472   1.415       .  A
C1472      N1473   1.429       .  S
N1473      O1477   1.263       .  A
N1473      O1478   1.260       .  A
N1476      O1479   1.263       .  A
N1476      O1480   1.263       .  A
C1481      C1482   1.409       .  A
C1481      C1486   1.409       .  A
C1481      H1488   1.077       .  S
C1482      C1483   1.418       .  A
C1483      C1484   1.398       .  A
C1483      N1490   1.438       .  S
C1484      C1485   1.400       .  A
C1484      H1489   1.084       .  S
C1485      C1486   1.411       .  A
C1486      N1487   1.442       .  S
N1487      O1491   1.263       .  A
N1487      O1492   1.263       .  A
N1490      O1493   1.263       .  A
N1490      O1494   1.260       .  A
C1495      C1496   1.407       .  A
C1495      C1500   1.411       .  A
C1495      H1502   1.082       .  S
C1496      C1497   1.417       .  A
C1497      C1498   1.407       .  A
C1497      N1504   1.430       .  S
C1498      C1499   1.404       .  A
C1498      H1503   1.083       .  S
C1499      C1500   1.419       .  A
C1500      N1501   1.440       .  S
N1501      O1505   1.263       .  A
N1501      O1506   1.263       .  A
N1504      O1507   1.260       .  A
N1504      O1508   1.263       .  A
C1509      C1510   1.405       .  A
C1509      C1514   1.404       .  A
C1509      H1516   1.083       .  S
C1510      C1511   1.414       .  A
C1511      C1512   1.407       .  A
C1511      N1518   1.441       .  S
C1512      C1513   1.404       .  A
C1512      H1517   1.078       .  S
C1513      C1514   1.413       .  A
C1514      N1515   1.436       .  S
N1515      O1519   1.263       .  A
N1515      O1520   1.261       .  A
N1518      O1521   1.263       .  A
N1518      O1522   1.263       .  A
C1523      C1524   1.407       .  A
C1523      C1528   1.400       .  A
C1523      H1530   1.084       .  S
C1524      C1525   1.415       .  A
C1525      C1526   1.412       .  A
C1525      N1532   1.437       .  S
C1526      C1527   1.409       .  A
C1526      H1531   1.083       .  S
C1527      C1528   1.414       .  A
C1528      N1529   1.442       .  S
N1529      O1533   1.263       .  A
N1529      O1534   1.259       .  A
N1532      O1535   1.263       .  A
N1532      O1536   1.262       .  A
C1537      C1538   1.407       .  A
C1537      C1542   1.399       .  A
C1537      H1544   1.083       .  S
C1538      C1539   1.413       .  A
C1539      C1540   1.408       .  A
C1539      N1546   1.429       .  S
C1540      C1541   1.407       .  A
C1540      H1545   1.079       .  S
C1541      C1542   1.415       .  A
C1542      N1543   1.439       .  S
N1543      O1547   1.263       .  A
N1543      O1548   1.259       .  A
N1546      O1549   1.262       .  A
N1546      O1550   1.262       .  A
C1551      C1552   1.406       .  A
C1551      C1556   1.416       .  A
C1551      H1558   1.083       .  S
C1552      C1553   1.418       .  A
C1553      C1554   1.397       .  A
C1553      N1560   1.439       .  S
C1554      C1555   1.401       .  A
C1554      H1559   1.080       .  S
C1555      C1556   1.423       .  A
C1556      N1557   1.438       .  S
N1557      O1561   1.263       .  A
N1557      O1562   1.260       .  A
N1560      O1563   1.263       .  A
N1560      O1564   1.263       .  A
C1565      C1566   1.405       .  A
C1565      C1570   1.400       .  A
C1565      H1572   1.083       .  S
C1566      C1567   1.420       .  A
C1567      C1568   1.403       .  A
C1567      N1574   1.427       .  S
C1568      C1569   1.399       .  A
C1568      H1573   1.084       .  S
C1569      C1570   1.414       .  A
C1570      N1571   1.438       .  S
N1571      O1575   1.262       .  A
N1571      O1576   1.263       .  A
N1574      O1577   1.262   1_554  A
N1574      O1578   1.260       .  A
C1579      C1580   1.408       .  A
C1579      C1584   1.412       .  A
C1579      H1586   1.083       .  S
C1580      C1581   1.413       .  A
C1581      C1582   1.401       .  A
C1581      N1588   1.434       .  S
C1582      C1583   1.403       .  A
C1582      H1587   1.084       .  S
C1583      C1584   1.416       .  A
C1584      N1585   1.442       .  S
N1585      O1589   1.263       .  A
N1585      O1590   1.263       .  A
N1588      O1591   1.260       .  A
N1588      O1592   1.263       .  A
C1593      C1594   1.406       .  A
C1593      C1598   1.412       .  A
C1593      H1600   1.083       .  S
C1594      C1595   1.415       .  A
C1595      C1596   1.401       .  A
C1595      N1602   1.440       .  S
C1596      C1597   1.399       .  A
C1596      H1601   1.081       .  S
C1597      C1598   1.420       .  A
C1598      N1599   1.441       .  S
N1599      O1603   1.263       .  A
N1599      O1604   1.261       .  A
N1602      O1605   1.263       .  A
N1602      O1606   1.263       .  A
C1607      C1608   1.404       .  A
C1607      C1612   1.402       .  A
C1607      H1614   1.080       .  S
C1608      C1609   1.411       .  A
C1609      C1610   1.400       .  A
C1609      N1616   1.425       .  S
C1610      C1611   1.403       .  A
C1610      H1615   1.084       .  S
C1611      C1612   1.415       .  A
C1612      N1613   1.431       .  S
N1613      O1617   1.262       .  A
N1613      O1618   1.262       .  A
N1616      O1619   1.262       .  A
N1616      O1620   1.262       .  A
C1621      C1622   1.401       .  A
C1621      C1626   1.398       .  A
C1621      H1628   1.081       .  S
C1622      C1623   1.424       .  A
C1623      C1624   1.417       .  A
C1623      N1630   1.439       .  S
C1624      C1625   1.406       .  A
C1624      H1629   1.083       .  S
C1625      C1626   1.420       .  A
C1626      N1627   1.438       .  S
N1627      O1631   1.263       .  A
N1627      O1632   1.263       .  A
N1630      O1633   1.263       .  A
N1630      O1634   1.259       .  A
C1635      C1636   1.409       .  A
C1635      C1640   1.412       .  A
C1635      H1642   1.080       .  S
C1636      C1637   1.415       .  A
C1637      C1638   1.398       .  A
C1637      N1644   1.429       .  S
C1638      C1639   1.402       .  A
C1638      H1643   1.084       .  S
C1639      C1640   1.415       .  A
C1640      N1641   1.441       .  S
N1641      O1645   1.263       .  A
N1641      O1646   1.263       .  A
N1644      O1647   1.262       .  A
N1644      O1648   1.262       .  A
C1649      C1650   1.405       .  A
C1649      C1654   1.407       .  A
C1649      H1656   1.076       .  S
C1650      C1651   1.422       .  A
C1651      C1652   1.411       .  A
C1651      N1658   1.435       .  S
C1652      C1653   1.402       .  A
C1652      H1657   1.083       .  S
C1653      C1654   1.416       .  A
C1654      N1655   1.441       .  S
N1655      O1659   1.263       .  A
N1655      O1660   1.263       .  A
N1658      O1661   1.258       .  A
N1658      O1662   1.263       .  A
C1663      C1664   1.404       .  A
C1663      C1668   1.417       .  A
C1663      H1670   1.083       .  S
C1664      C1665   1.420       .  A
C1665      C1666   1.400       .  A
C1665      N1672   1.440       .  S
C1666      C1667   1.400       .  A
C1666      H1671   1.078       .  S
C1667      C1668   1.427       .  A
C1668      N1669   1.440       .  S
N1669      O1673   1.263       .  A
N1669      O1674   1.259       .  A
N1672      O1675   1.263       .  A
N1672      O1676   1.263       .  A
C1677      C1678   1.400       .  A
C1677      C1682   1.395       .  A
C1677      H1684   1.081       .  S
C1678      C1679   1.418       .  A
C1679      C1680   1.410       .  A
C1679      N1686   1.438       .  S
C1680      C1681   1.405       .  A
C1680      H1685   1.083       .  S
C1681      C1682   1.415       .  A
C1682      N1683   1.440       .  S
N1683      O1687   1.263       .  A
N1683      O1688   1.263       .  A
N1686      O1689   1.260       .  A
N1686      O1690   1.263       .  A
C1691      C1692   1.405       .  A
C1691      C1696   1.410       .  A
C1691      H1698   1.077       .  S
C1692      C1693   1.415       .  A
C1693      C1694   1.407       .  A
C1693      N1700   1.435       .  S
C1694      C1695   1.405       .  A
C1694      H1699   1.083       .  S
C1695      C1696   1.417       .  A
C1696      N1697   1.441       .  S
N1697      O1701   1.263       .  A
N1697      O1702   1.263       .  A
N1700      O1703   1.263       .  A
N1700      O1704   1.261       .  A
C1705      C1706   1.410       .  A
C1705      C1710   1.398       .  A
C1705      H1712   1.083       .  S
C1706      C1707   1.416       .  A
C1707      C1708   1.414       .  A
C1707      N1714   1.437       .  S
C1708      C1709   1.409       .  A
C1708      H1713   1.079       .  S
C1709      C1710   1.413       .  A
C1710      N1711   1.440       .  S
N1711      O1715   1.260       .  A
N1711      O1716   1.263       .  A
N1714      O1717   1.262       .  A
N1714      O1718   1.263       .  A
C1719      C1720   1.408       .  A
C1719      C1724   1.407       .  A
C1719      H1726   1.075       .  S
C1720      C1721   1.416       .  A
C1721      C1722   1.400       .  A
C1721      N1728   1.438       .  S
C1722      C1723   1.402       .  A
C1722      H1727   1.084       .  S
C1723      C1724   1.410       .  A
C1724      N1725   1.442       .  S
N1725      O1729   1.263       .  A
N1725      O1730   1.263       .  A
N1728      O1731   1.260       .  A
N1728      O1732   1.263       .  A
C1733      C1734   1.409       .  A
C1733      C1738   1.413       .  A
C1733      H1740   1.081       .  S
C1734      C1735   1.407       .  A
C1735      C1736   1.395       .  A
C1735      N1742   1.428       .  S
C1736      C1737   1.409       .  A
C1736      H1741   1.084       .  S
C1737      C1738   1.414       .  A
C1738      N1739   1.438       .  S
N1739      O1743   1.263       .  A
N1739      O1744   1.263       .  A
N1742      O1745   1.263       .  A
N1742      O1746   1.260       .  A
C1747      C1748   1.404       .  A
C1747      C1752   1.412       .  A
C1747      H1754   1.084       .  S
C1748      C1749   1.414       .  A
C1749      C1750   1.401       .  A
C1749      N1756   1.436       .  S
C1750      C1751   1.405       .  A
C1750      H1755   1.082       .  S
C1751      C1752   1.423       .  A
C1752      N1753   1.433       .  S
N1753      O1757   1.263       .  A
N1753      O1758   1.259       .  A
N1756      O1759   1.262       .  A
N1756      O1760   1.263       .  A
C1761      C1762   1.401       .  A
C1761      C1766   1.400       .  A
C1761      H1768   1.083       .  S
C1762      C1763   1.416       .  A
C1763      C1764   1.410       .  A
C1763      N1770   1.440       .  S
C1764      C1765   1.407       .  A
C1764      H1769   1.083       .  S
C1765      C1766   1.419       .  A
C1766      N1767   1.440       .  S
N1767      O1771   1.263       .  A
N1767      O1772   1.259       .  A
N1770      O1773   1.263       .  A
N1770      O1774   1.263       .  A
C1775      C1776   1.404       .  A
C1775      C1780   1.393       .  A
C1775      H1782   1.084       .  S
C1776      C1777   1.415       .  A
C1777      C1778   1.409       .  A
C1777      N1784   1.438       .  S
C1778      C1779   1.406       .  A
C1778      H1783   1.079       .  S
C1779      C1780   1.410       .  A
C1780      N1781   1.428       .  S
N1781      O1785   1.263       .  A
N1781      O1786   1.261       .  A
N1784      O1787   1.263       .  A
N1784      O1788   1.263       .  A
C1789      C1790   1.408       .  A
C1789      C1794   1.413       .  A
C1789      H1796   1.082       .  S
C1790      C1791   1.410       .  A
C1791      C1792   1.394       .  A
C1791      N1798   1.428       .  S
C1792      C1793   1.407       .  A
C1792      H1797   1.084       .  S
C1793      C1794   1.415       .  A
C1794      N1795   1.438       .  S
N1795      O1799   1.263       .  A
N1795      O1800   1.263       .  A
N1798      O1801   1.262       .  A
N1798      O1802   1.261       .  A
C1803      C1804   1.400       .  A
C1803      C1808   1.407       .  A
C1803      H1810   1.083       .  S
C1804      C1805   1.413       .  A
C1805      C1806   1.400       .  A
C1805      N1812   1.441       .  S
C1806      C1807   1.404       .  A
C1806      H1811   1.076       .  S
C1807      C1808   1.425       .  A
C1808      N1809   1.432       .  S
N1809      O1813   1.263       .  A
N1809      O1814   1.258       .  A
N1812      O1815   1.263       .  A
N1812      O1816   1.263       .  A
C1817      C1818   1.402       .  A
C1817      C1822   1.398       .  A
C1817      H1824   1.081       .  S
C1818      C1819   1.422       .  A
C1819      C1820   1.413       .  A
C1819      N1826   1.441       .  S
C1820      C1821   1.407       .  A
C1820      H1825   1.083       .  S
C1821      C1822   1.414       .  A
C1822      N1823   1.436       .  S
N1823      O1827   1.263       .  A
N1823      O1828   1.262       .  A
N1826      O1829   1.261       .  A
N1826      O1830   1.263       .  A
C1831      C1832   1.399       .  A
C1831      C1836   1.401       .  A
C1831      H1838   1.079       .  S
C1832      C1833   1.415       .  A
C1833      C1834   1.410       .  A
C1833      N1840   1.424       .  S
C1834      C1835   1.406       .  A
C1834      H1839   1.083       .  S
C1835      C1836   1.424       .  A
C1836      N1837   1.437       .  S
N1837      O1841   1.263       .  A
N1837      O1842   1.262       .  A
N1840      O1843   1.262       .  A
N1840      O1844   1.262       .  A
C1845      C1846   1.407       .  A
C1845      C1850   1.400       .  A
C1845      H1852   1.082       .  S
C1846      C1847   1.422       .  A
C1847      C1848   1.414       .  A
C1847      N1854   1.439       .  S
C1848      C1849   1.407       .  A
C1848      H1853   1.084       .  S
C1849      C1850   1.412       .  A
C1850      N1851   1.437       .  S
N1851      O1855   1.263       .  A
N1851      O1856   1.262       .  A
N1854      O1857   1.260       .  A
N1854      O1858   1.263       .  A
C1859      C1860   1.409       .  A
C1859      C1864   1.414       .  A
C1859      H1866   1.084       .  S
C1860      C1861   1.409       .  A
C1861      C1862   1.393       .  A
C1861      N1868   1.431       .  S
C1862      C1863   1.409       .  A
C1862      H1867   1.084       .  S
C1863      C1864   1.418       .  A
C1864      N1865   1.431       .  S
N1865      O1869   1.262       .  A
N1865      O1870   1.262       .  A
N1868      O1871   1.262       .  A
N1868      O1872   1.260       .  A
C1873      C1874   1.407       .  A
C1873      C1878   1.398       .  A
C1873      H1880   1.084       .  S
C1874      C1875   1.413       .  A
C1875      C1876   1.412       .  A
C1875      N1882   1.438       .  S
C1876      C1877   1.409       .  A
C1876      H1881   1.072       .  S
C1877      C1878   1.414       .  A
C1878      N1879   1.432       .  S
N1879      O1883   1.263       .  A
N1879      O1884   1.259       .  A
N1882      O1885   1.263       .  A
N1882      O1886   1.263       .  A
C1887      C1888   1.402       .  A
C1887      C1892   1.405       .  A
C1887      H1894   1.075       .  S
C1888      C1889   1.411       .  A
C1889      C1890   1.403       .  A
C1889      N1896   1.427       .  S
C1890      C1891   1.404       .  A
C1890      H1895   1.084       .  S
C1891      C1892   1.414       .  A
C1892      N1893   1.442       .  S
N1893      O1897   1.263       .  A
N1893      O1898   1.263       .  A
N1896      O1899   1.261       .  A
N1896      O1900   1.262       .  A
C1901      C1902   1.405       .  A
C1901      C1906   1.402       .  A
C1901      H1908   1.075       .  S
C1902      C1903   1.424       .  A
C1903      C1904   1.406       .  A
C1903      N1910   1.428       .  S
C1904      C1905   1.398       .  A
C1904      H1909   1.084       .  S
C1905      C1906   1.415       .  A
C1906      N1907   1.435       .  S
N1907      O1911   1.263       .  A
N1907      O1912   1.262       .  A
N1910      O1913   1.259       .  A
N1910      O1914   1.263       .  A
C1915      C1916   1.401       .  A
C1915      C1920   1.401       .  A
C1915      H1922   1.075       .  S
C1916      C1917   1.428       .  A
C1917      C1918   1.411       .  A
C1917      N1924   1.446       .  S
C1918      C1919   1.401       .  A
C1918      H1923   1.083       .  S
C1919      C1920   1.415       .  A
C1920      N1921   1.441       .  S
N1921      O1925   1.263       .  A
N1921      O1926   1.263       .  A
N1924      O1927   1.258       .  A
N1924      O1928   1.263       .  A
C1929      C1930   1.407       .  A
C1929      C1934   1.404       .  A
C1929      H1936   1.083       .  S
C1930      C1931   1.424       .  A
C1931      C1932   1.406       .  A
C1931      N1938   1.426       .  S
C1932      C1933   1.399       .  A
C1932      H1937   1.084       .  S
C1933      C1934   1.416       .  A
C1934      N1935   1.437       .  S
N1935      O1939   1.262       .  A
N1935      O1940   1.263       .  A
N1938      O1941   1.262       .  A
N1938      O1942   1.260       .  A
C1943      C1944   1.407       .  A
C1943      C1948   1.411       .  A
C1943      H1950   1.083       .  S
C1944      C1945   1.414       .  A
C1945      C1946   1.401       .  A
C1945      N1952   1.437       .  S
C1946      C1947   1.402       .  A
C1946      H1951   1.084       .  S
C1947      C1948   1.416       .  A
C1948      N1949   1.442       .  S
N1949      O1953   1.263       .  A
N1949      O1954   1.263       .  A
N1952      O1955   1.260       .  A
N1952      O1956   1.263       .  A
C1957      C1958   1.407       .  A
C1957      C1962   1.410       .  A
C1957      H1964   1.081       .  S
C1958      C1959   1.412       .  A
C1959      C1960   1.404       .  A
C1959      N1966   1.426       .  S
C1960      C1961   1.407       .  A
C1960      H1965   1.084       .  S
C1961      C1962   1.417       .  A
C1962      N1963   1.431       .  S
N1963      O1967   1.262       .  A
N1963      O1968   1.262       .  A
N1966      O1969   1.262       .  A
N1966      O1970   1.262       .  A
C1971      C1972   1.398       .  A
C1971      C1976   1.398       .  A
C1971      H1978   1.081       .  S
C1972      C1973   1.417       .  A
C1973      C1974   1.410       .  A
C1973      N1980   1.441       .  S
C1974      C1975   1.406       .  A
C1974      H1979   1.083       .  S
C1975      C1976   1.414       .  A
C1976      N1977   1.441       .  S
N1977      O1981   1.263       .  A
N1977      O1982   1.263       .  A
N1980      O1983   1.261       .  A
N1980      O1984   1.263       .  A
C1985      C1986   1.409       .  A
C1985      C1990   1.405       .  A
C1985      H1992   1.080       .  S
C1986      C1987   1.424       .  A
C1987      C1988   1.407       .  A
C1987      N1994   1.432       .  S
C1988      C1989   1.401       .  A
C1988      H1993   1.084       .  S
C1989      C1990   1.413       .  A
C1990      N1991   1.432       .  S
N1991      O1995   1.262       .  A
N1991      O1996   1.262       .  A
N1994      O1997   1.258       .  A
N1994      O1998   1.263       .  A
C1999      C2000   1.409       .  A
C1999      C2004   1.412       .  A
C1999      H2006   1.083       .  S
C2000      C2001   1.415       .  A
C2001      C2002   1.399       .  A
C2001      N2008   1.442       .  S
C2002      C2003   1.407       .  A
C2002      H2007   1.084       .  S
C2003      C2004   1.416       .  A
C2004      N2005   1.436       .  S
N2005      O2009   1.263       .  A
N2005      O2010   1.262       .  A
N2008      O2011   1.259       .  A
N2008      O2012   1.263       .  A
C2013      C2014   1.401       .  A
C2013      C2018   1.405       .  A
C2013      H2020   1.076       .  S
C2014      C2015   1.422       .  A
C2015      C2016   1.408       .  A
C2015      N2022   1.422       .  S
C2016      C2017   1.399       .  A
C2016      H2021   1.084       .  S
C2017      C2018   1.423       .  A
C2018      N2019   1.438       .  S
N2019      O2023   1.263       .  A
N2019      O2024   1.263       .  A
N2022      O2025   1.262       .  A
N2022      O2026   1.262       .  A
C2027      C2028   1.395       .  A
C2027      C2032   1.395       .  A
C2027      H2034   1.080       .  S
C2028      C2029   1.426       .  A
C2029      C2030   1.417       .  A
C2029      N2036   1.439       .  S
C2030      C2031   1.405       .  A
C2030      H2035   1.083       .  S
C2031      C2032   1.421       .  A
C2032      N2033   1.440       .  S
N2033      O2037   1.263       .  A
N2033      O2038   1.263       .  A
N2036      O2039   1.263       .  A
N2036      O2040   1.259       .  A
C2041      C2042   1.406       .  A
C2041      C2046   1.398       .  A
C2041      H2048   1.081       .  S
C2042      C2043   1.423       .  A
C2043      C2044   1.409       .  A
C2043      N2050   1.435       .  S
C2044      C2045   1.403       .  A
C2044      H2049   1.084       .  S
C2045      C2046   1.412       .  A
C2046      N2047   1.437       .  S
N2047      O2051   1.263       .  A
N2047      O2052   1.262       .  A
N2050      O2053   1.259       .  A
N2050      O2054   1.263       .  A
C2055      C2056   1.411       .  A
C2055      C2060   1.417       .  A
C2055      H2062   1.082       .  S
C2056      C2057   1.411       .  A
C2057      C2058   1.394       .  A
C2057      N2064   1.427       .  S
C2058      C2059   1.406       .  A
C2058      H2063   1.084       .  S
C2059      C2060   1.417       .  A
C2060      N2061   1.437       .  S
N2061      O2065   1.263       .  A
N2061      O2066   1.262       .  A
N2064      O2067   1.262       .  A
N2064      O2068   1.262       .  A
C2069      C2070   1.406       .  A
C2069      C2074   1.410       .  A
C2069      H2076   1.080       .  S
C2070      C2071   1.417       .  A
C2071      C2072   1.405       .  A
C2071      N2078   1.436       .  S
C2072      C2073   1.403       .  A
C2072      H2077   1.083       .  S
C2073      C2074   1.416       .  A
C2074      N2075   1.440       .  S
N2075      O2079   1.263       .  A
N2075      O2080   1.263       .  A
N2078      O2081   1.259       .  A
N2078      O2082   1.263       .  A
C2083      C2084   1.404       .  A
C2083      C2088   1.403       .  A
C2083      H2090   1.077       .  S
C2084      C2085   1.418       .  A
C2085      C2086   1.407       .  A
C2085      N2092   1.441       .  S
C2086      C2087   1.408       .  A
C2086      H2091   1.083       .  S
C2087      C2088   1.413       .  A
C2088      N2089   1.437       .  S
N2089      O2093   1.263       .  A
N2089      O2094   1.263       .  A
N2092      O2095   1.263       .  A
N2092      O2096   1.260       .  A
