geometry optimzed in LAMMPS
_audit_creation_date              2020-12-01 
_audit_creation_method            'lammps2cif' 
_symmetry_space_group_name_H-M    'P1' 
_symmetry_Int_Tables_number       1 
_symmetry_cell_setting            triclinic 
loop_ 
_symmetry_equiv_pos_as_xyz 
  x,y,z 
_cell_length_a                    45.72346601 
_cell_length_b                    45.49693653651834 
_cell_length_c                    37.28165846646135 
_cell_angle_alpha                 90.18549804906255 
_cell_angle_beta                  90.03560563972118 
_cell_angle_gamma                 125.20978156282683 
loop_ 
_atom_site_label 
_atom_site_type_symbol 
_atom_site_fract_x 
_atom_site_fract_y 
_atom_site_fract_z 
_atom_site_charge 
C1          C  0.53525511  0.86181404  0.50101955     0.79800
N2          N  0.53146603  0.87579334  0.47061681    -0.78500
C3          C  0.51941629  0.89689857  0.47232088     0.82300
N4          N  0.50033578  0.89778638  0.00238126    -0.78400
C5          C  0.50435290  0.88453031  0.03287992     0.82400
N6          N  0.51772121  0.86461190  0.03113876    -0.80100
C7          C  0.27566643  0.87232936  0.50015142     0.79800
N8          N  0.28656252  0.89156441  0.03089679    -0.78500
C9          C  0.31871568  0.92381312  0.03376417     0.82300
N10         N  0.33741268  0.94090136  0.00357384    -0.78400
C11         C  0.32399788  0.92377601  0.47133428     0.82400
N12         N  0.29322030  0.89012420  0.46974264    -0.80100
O13         O  0.40036489  0.97068415  0.31372682    -0.75700
O14         O  0.44753508  0.00124447  0.35233888    -0.54600
C15         C  0.41382789  0.98034957  0.34542849     0.78000
O16         O  0.49762957  0.94157736  0.19281508    -0.60300
O17         O  0.49178437  0.97420209  0.15063542    -0.53300
C18         C  0.49468241  0.94892644  0.16023800     0.70100
O19         O  0.50276298  0.94921683  0.31449541    -0.74800
O20         O  0.50252858  0.98810859  0.35286893    -0.55400
C21         C  0.50388880  0.96117827  0.34624999     0.76100
O22         O  0.39434286  0.96765758  0.19324785    -0.60000
O23         O  0.43805598  0.99243383  0.15060105    -0.53100
C24         C  0.40518535  0.97448334  0.16053031     0.72700
Zr25       Zr  0.42249570  0.98296841  0.25241666     2.54700
O26         O  0.37781496  0.91813534  0.25427284    -0.80500
O27         O  0.37764279  0.99582492  0.25405733    -0.94000
Zr28       Zr  0.49745940  0.96385274  0.25258070     2.64700
O29         O  0.45032370  0.89986555  0.25786691    -0.98900
O30         O  0.54392919  0.95325476  0.25284833    -0.81000
O31         O  0.46100941  0.97492442  0.28692881    -0.84300
O32         O  0.45759427  0.97019973  0.21809054    -2.19000
O33         O  0.49375847  0.10406686  0.18421458    -0.67700
O34         O  0.49335915  0.06506612  0.14562148    -0.52300
C35         C  0.49250747  0.09225612  0.15235727     0.71000
O36         O  0.60194984  0.08482270  0.30485084    -0.60600
O37         O  0.55794796  0.06317360  0.34696134    -0.52600
C38         C  0.59087782  0.07994938  0.33748971     0.72800
O39         O  0.59558457  0.07806321  0.18388675    -0.72000
O40         O  0.54789962  0.05071948  0.14556783    -0.50700
C41         C  0.58163476  0.06963909  0.15222037     0.74200
O42         O  0.50293068  0.11459373  0.30484504    -0.67400
O43         O  0.50551607  0.08016009  0.34722033    -0.54600
C44         C  0.50549386  0.10727422  0.33752260     0.72600
Zr45       Zr  0.49870760  0.08877732  0.24584536     2.77500
O46         O  0.54672400  0.15269188  0.24230150    -0.98100
O47         O  0.45175417  0.09866048  0.24656213    -0.78900
Zr48       Zr  0.57362443  0.06907939  0.24555633     2.70100
O49         O  0.61850073  0.13377129  0.24290596    -0.77200
O50         O  0.61768160  0.05516270  0.24386137    -0.99300
Zr51       Zr  0.50111336  0.03085335  0.31636529     2.21500
Zr52       Zr  0.49460555  0.02204516  0.18188459     2.11100
O53         O  0.53524704  0.07780118  0.21149758    -2.47900
O54         O  0.53842173  0.08200632  0.27986494    -0.80000
O55         O  0.45836374  0.03383116  0.21519959    -0.72200
O56         O  0.53747506  0.01871055  0.28322584    -2.33100
O57         O  0.46142929  0.03833183  0.28335537    -2.29300
O58         O  0.53411002  0.01408324  0.21465311    -0.73900
H59         H  0.44212912  0.94893652  0.20346989     0.78100
H60         H  0.55252886  0.01592692  0.29872293     0.79200
H61         H  0.54900850  0.09687510  0.19464454     0.81400
H62         H  0.44786989  0.04305821  0.29905168     0.79000
H63         H  0.56082280  0.96922381  0.23389013     0.42000
H64         H  0.64073736  0.07822429  0.24946588     0.41000
H65         H  0.60685124  0.14423010  0.25427603     0.40700
H66         H  0.55193369  0.15773039  0.21642248     0.38600
H67         H  0.43393848  0.08126743  0.22877489     0.41700
H68         H  0.38210719  0.00909219  0.27682351     0.36500
H69         H  0.35487251  0.91478198  0.24878414     0.42600
H70         H  0.43679778  0.89795362  0.27954772     0.39100
H71         H  0.53533585  0.16495146  0.24909799     0.44000
H72         H  0.35468835  0.97215783  0.25790457     0.42700
H73         H  0.43385881  0.89446847  0.23769616     0.42800
H74         H  0.61247996  0.03997695  0.26522153     0.43200
C75         C  0.49985409  0.22199788  0.49633080     0.79800
N76         N  0.50121334  0.20519896  0.03033493    -0.78500
C77         C  0.49959768  0.17433496  0.02920915     0.82300
N78         N  0.50387021  0.16298815  0.99720382    -0.78400
C79         C  0.50538527  0.18109002  0.46324635     0.82400
N80         N  0.50376014  0.20997053  0.46436283    -0.80100
C81         C  0.67386498  0.11586381  0.02800484     0.79800
N82         N  0.65718775  0.10904568  0.99588266    -0.78500
C83         C  0.67688502  0.11738709  0.46418557     0.82300
N84         N  0.71317054  0.13789028  0.46591377    -0.78400
C85         C  0.73008469  0.14639728  0.49828722     0.82400
N86         N  0.71021244  0.13539372  0.02907483    -0.80100
O87         O  0.10598483  0.49830925  0.31372851    -0.75700
O88         O  0.06787398  0.49852945  0.35293207    -0.54600
C89         C  0.09532632  0.49847936  0.34564677     0.78000
O90         O  0.07229963  0.59118975  0.18685462    -0.60300
O91         O  0.04815911  0.54394295  0.14776776    -0.53300
C92         C  0.06477813  0.57768828  0.15497921     0.70100
O93         O  0.07524734  0.59572514  0.30755971    -0.74800
O94         O  0.04940694  0.55087686  0.34918451    -0.55400
C95         C  0.06731114  0.58404788  0.33998111     0.76100
O96         O  0.10687261  0.49476391  0.19267303    -0.60000
O97         O  0.06816601  0.49126418  0.15141508    -0.53100
C98         C  0.09620281  0.49276868  0.16017218     0.72700
Zr99       Zr  0.08576603  0.49664025  0.25252907     2.54700
O100        O  0.14799364  0.54853108  0.25402219    -0.80500
O101        O  0.10159626  0.45390118  0.25470389    -0.94000
Zr102      Zr  0.06202592  0.56823578  0.24803101     2.64700
O103        O  0.12625023  0.61415327  0.24548425    -0.98900
O104        O  0.04711727  0.61167772  0.24766443    -0.81000
O105        O  0.07464446  0.53431354  0.28488251    -0.84300
O106        O  0.07474956  0.53180892  0.21574690    -2.19000
O107        O  0.96889952  0.38878061  0.19454078    -0.67700
O108        O  0.99462441  0.43300379  0.15222614    -0.52300
C109        C  0.97671203  0.39988270  0.16193854     0.71000
O110        O  0.93600443  0.48926106  0.30911517    -0.60600
O111        O  0.97394301  0.49142686  0.35059060    -0.52600
C112        C  0.94595045  0.48996509  0.34168196     0.72800
O113        O  0.93864473  0.48809891  0.18720600    -0.72000
O114        O  0.97504601  0.48511374  0.14800167    -0.50700
C115        C  0.94820928  0.48614914  0.15524420     0.74200
O116        O  0.96907010  0.39431757  0.31563095    -0.67400
O117        O  0.99361675  0.44171871  0.35401138    -0.54600
C118        C  0.97611828  0.40788658  0.34744995     0.72600
Zr119      Zr  0.98061823  0.41646131  0.25384258     2.77500
O120        O  0.91612552  0.37118440  0.25515999    -0.98100
O121        O  0.99231579  0.37071571  0.25763737    -0.78900
Zr122      Zr  0.95742317  0.48861604  0.24888415     2.70100
O123        O  0.89399698  0.43980156  0.24580958    -0.80200
O124        O  0.94514736  0.53407538  0.24929009    -0.99300
Zr125      Zr  0.02139812  0.49476125  0.31779094     2.21500
Zr126      Zr  0.02153586  0.48972382  0.18343158     2.11100
O127        O  0.96831766  0.45055886  0.21691126    -2.47900
O128        O  0.96793288  0.45305012  0.28578516    -0.80000
O129        O  0.03325089  0.45453039  0.21928231    -0.72200
O130        O  0.00958771  0.53014893  0.28244779    -2.33100
O131        O  0.03351608  0.45718140  0.28690237    -2.29300
O132        O  0.00957663  0.52745553  0.21422711    -0.73900
H133        H  0.09456614  0.54653074  0.19981937     0.78100
H134        H  0.00498886  0.54454949  0.29731931     0.79200
H135        H  0.94838954  0.43470586  0.20120925     0.81400
H136        H  0.03801728  0.44397745  0.30326131     0.79000
H137        H  0.02645937  0.60121665  0.23105503     0.42000
H138        H  0.95412751  0.54647876  0.22596934     0.41000
H139        H  0.88867521  0.42734771  0.26909646     0.40700
H140        H  0.90584716  0.38207394  0.24192125     0.38600
H141        H  0.96845370  0.34795873  0.26152060     0.41700
H142        H  0.08768861  0.43671591  0.23497680     0.36500
H143        H  0.16140091  0.53882944  0.26241363     0.42600
H144        H  0.12893217  0.63697739  0.25042893     0.39100
H145        H  0.91193172  0.35159951  0.23929077     0.44000
H146        H  0.09014685  0.43980159  0.27680275     0.42700
H147        H  0.13593038  0.61000834  0.26715992     0.42800
H148        H  0.91875930  0.52021225  0.24731532     0.43200
C149        C  0.22694848  0.52037877  0.50152907     0.79800
N150        N  0.20681188  0.51048458  0.03216966    -0.78500
C151        C  0.17360287  0.50337627  0.03288686     0.82300
N152        N  0.15830300  0.50307553  0.00168298    -0.78400
C153        C  0.17548996  0.50704829  0.47036115     0.82400
N154        N  0.20960977  0.51656721  0.47024966    -0.80100
C155        C  0.92555534  0.31203662  0.03563639     0.79800
N156        N  0.94020964  0.33197425  0.00562167    -0.78500
C157        C  0.92603187  0.31837552  0.47471898     0.82300
N158        N  0.89467819  0.28519117  0.47263699    -0.78400
C159        C  0.87940193  0.26507009  0.50263738     0.82400
N160        N  0.89472104  0.27854512  0.03294483    -0.80100
C161        C  0.85384808  0.52784640  0.50017464     0.79800
N162        N  0.86242304  0.51998477  0.46817213    -0.78500
C163        C  0.88229148  0.50644314  0.46705089     0.82300
N164        N  0.89247685  0.49860587  0.99912384    -0.78400
C165        C  0.88315203  0.50442529  0.03150843     0.82400
N166        N  0.86262066  0.51728908  0.03260467    -0.80100
C167        C  0.15277540  0.72396328  0.49970294     0.79800
N168        N  0.13964165  0.70667837  0.46779123    -0.78500
C169        C  0.11256708  0.67122776  0.46671904     0.82300
N170        N  0.10129556  0.65440301  0.99900814    -0.78400
C171        C  0.11472953  0.67139154  0.03094905     0.82400
N172        N  0.14008079  0.70761158  0.03130944    -0.80100
O173        O  0.66072167  0.59216048  0.18762027    -0.75700
O174        O  0.61618460  0.57958844  0.14917595    -0.54600
C175        C  0.64735873  0.58710512  0.15589392     0.78000
O176        O  0.54251988  0.48012220  0.31610734    -0.60300
O177        O  0.55857083  0.52600108  0.35461875    -0.53300
C178        C  0.54869139  0.49382678  0.34790611     0.70100
O179        O  0.53413838  0.47304462  0.19459468    -0.74800
O180        O  0.54559589  0.51495456  0.15289864    -0.55400
C181        C  0.53564527  0.48327510  0.16200351     0.76100
O182        O  0.66656377  0.59813301  0.30832139    -0.60000
O183        O  0.62760044  0.59270168  0.35039938    -0.53100
C184        C  0.65714518  0.59755509  0.34102094     0.72700
Zr185      Zr  0.64140077  0.59308377  0.24865546     2.54700
O186        O  0.67266862  0.56422527  0.24804051    -0.80500
O187        O  0.69769341  0.65259034  0.24559575    -0.94000
Zr188      Zr  0.54390618  0.50011520  0.25446947     2.64700
O189        O  0.56351470  0.46040991  0.25162214    -0.98900
O190        O  0.48124574  0.44979834  0.25978461    -0.81000
O191        O  0.58910244  0.54765608  0.22259624    -0.84300
O192        O  0.59509010  0.54760680  0.28556067    -2.19000
O193        O  0.60326612  0.67279233  0.30862518    -0.67700
O194        O  0.59324597  0.63148968  0.35051303    -0.52300
C195        C  0.60112141  0.66244210  0.34128580     0.71000
O196        O  0.47441623  0.54745129  0.19423751    -0.60600
O197        O  0.51498514  0.55522784  0.15297838    -0.52600
C198        C  0.48449306  0.54834523  0.16176229     0.72800
O199        O  0.47990185  0.55227628  0.31598393    -0.72000
O200        O  0.52408996  0.56382770  0.35476689    -0.50700
C201        C  0.49278418  0.55601356  0.34779286     0.74200
O202        O  0.59457040  0.66464282  0.18700221    -0.67400
O203        O  0.58258589  0.62034789  0.14832450    -0.54600
C204        C  0.58976972  0.65156227  0.15512770     0.72600
Zr205      Zr  0.59693686  0.64724177  0.24851231     2.77500
O206        O  0.57321412  0.68340555  0.24680961    -0.98100
O207        O  0.65742425  0.70169986  0.24355652    -0.78900
Zr208      Zr  0.49976812  0.55463453  0.25426188     2.70100
O209        O  0.47795324  0.59245658  0.25422148    -0.80200
O210        O  0.43978900  0.49904125  0.25702435    -0.99300
Zr211      Zr  0.56752607  0.56998668  0.18494294     2.21500
Zr212      Zr  0.57428683  0.57704993  0.31866095     2.11100
O213        O  0.54986107  0.60279151  0.28552885    -2.47900
O214        O  0.54648034  0.59924906  0.21712472    -0.80000
O215        O  0.62229888  0.62314149  0.28318592    -0.72200
O216        O  0.51894334  0.52440476  0.22007078    -2.33100
O217        O  0.61894654  0.61978683  0.21388086    -2.29300
O218        O  0.52267762  0.52813074  0.28897480    -0.73900
H219        H  0.60456611  0.53791325  0.30096999     0.78100
H220        H  0.49953955  0.50590759  0.20531376     0.79200
H221        H  0.54172714  0.61370087  0.30114405     0.81400
H222        H  0.63655740  0.63655989  0.19669454     0.79000
H223        H  0.48022552  0.43636096  0.28113530     0.42000
H224        H  0.42357199  0.50677975  0.25495764     0.41000
H225        H  0.45230852  0.57601055  0.24780513     0.40700
H226        H  0.55525220  0.67381325  0.26625601     0.38600
H227        H  0.66466417  0.70141053  0.21859383     0.41700
H228        H  0.71543660  0.64975260  0.25716091     0.36500
H229        H  0.65514065  0.53994823  0.23798492     0.42600
H230        H  0.58203306  0.46935618  0.27049605     0.39100
H231        H  0.59311268  0.70757469  0.25530209     0.44000
H232        H  0.69485154  0.66748223  0.26266432     0.42700
H233        H  0.54289526  0.43707639  0.26087278     0.42800
H234        H  0.43675154  0.48653683  0.23406530     0.43200
C235        C  0.51092444  0.35569106  0.50402399     0.79800
N236        N  0.51606796  0.37263122  0.03378990    -0.78500
C237        C  0.51883164  0.40396881  0.03393356     0.82300
N238        N  0.52133730  0.42070275  0.50435402    -0.78400
C239        C  0.52170669  0.40610821  0.47279771     0.82400
N240        N  0.51654215  0.37362176  0.47276860    -0.80100
C241        C  0.36577881  0.54272752  0.50413481     0.79800
N242        N  0.38258458  0.54506613  0.47290851    -0.78500
C243        C  0.41205159  0.54455988  0.47325260     0.82300
N244        N  0.42435108  0.54138989  0.50501517    -0.78400
C245        C  0.40367806  0.53014726  0.03463702     0.82400
N246        N  0.37382207  0.52975988  0.03410050    -0.80100
C247        C  0.76147783  0.57792193  0.49872976     0.79800
N248        N  0.74368618  0.57338728  0.03013259    -0.78500
C249        C  0.72073143  0.58330676  0.03049640     0.82300
N250        N  0.71708426  0.59930077  0.49901012    -0.78400
C251        C  0.72927869  0.59585564  0.46728394     0.82400
N252        N  0.75127947  0.58481279  0.46733936    -0.80100
C253        C  0.58483205  0.76991300  0.49978344     0.79800
N254        N  0.58087241  0.75185318  0.03169297    -0.78500
C255        C  0.59010210  0.72827531  0.03030128     0.82300
N256        N  0.60102060  0.72140817  0.49790494    -0.78400
C257        C  0.59835867  0.73486957  0.46669672     0.82400
N258        N  0.59005425  0.75907406  0.46779043    -0.80100
C259        C  0.45159534  0.56724574  0.37873916    -0.26700
C260        C  0.47023907  0.55121610  0.37884099    -0.14800
C261        C  0.46862929  0.53215415  0.40939609     0.35900
C262        C  0.44887408  0.52992573  0.43932040    -0.26200
C263        C  0.43075757  0.54653084  0.43975304    -0.15400
C264        C  0.43233505  0.56563727  0.40912088     0.36900
N265        N  0.41558264  0.58437472  0.40934252    -0.89600
H266        H  0.45328773  0.58230251  0.35541435     0.18100
H267        H  0.44766613  0.51503012  0.46255827     0.18000
N268        N  0.48699710  0.51499860  0.40988058    -0.88700
H269        H  0.41923039  0.59701145  0.38475233     0.35400
H270        H  0.42877000  0.60486956  0.42859793     0.40500
H271        H  0.47521016  0.49472149  0.39035546     0.40100
H272        H  0.48343105  0.50236682  0.43447862     0.35000
C273        C  0.46131954  0.52270389  0.10155216    -0.26700
C274        C  0.45958646  0.54013170  0.13172427    -0.14800
C275        C  0.43613801  0.55092599  0.13126527     0.35900
C276        C  0.41670853  0.54593076  0.09971677    -0.26200
C277        C  0.42015669  0.53024507  0.06890421    -0.15400
C278        C  0.44165093  0.51719469  0.07044727     0.36900
N279        N  0.44375603  0.49863240  0.04034026    -0.89600
H280        H  0.47859390  0.51363505  0.10207764     0.18100
H281        H  0.39997712  0.55567053  0.09874214     0.18000
N282        N  0.43364309  0.56871044  0.16181775    -0.88700
H283        H  0.41839144  0.47467947  0.03665493     0.35400
H284        H  0.46124903  0.49137935  0.04570936     0.40500
H285        H  0.42090276  0.54969190  0.18224769     0.40100
H286        H  0.41710118  0.57706051  0.15607103     0.35000
C287        C  0.62130069  0.70496896  0.43320745    -0.26700
C288        C  0.60325996  0.72159881  0.43231128    -0.14800
C289        C  0.58849026  0.72267295  0.39941301     0.35900
C290        C  0.59033849  0.70544949  0.36892836    -0.26200
C291        C  0.60621290  0.68670710  0.37087350    -0.15400
C292        C  0.62270599  0.68750212  0.40308734     0.36900
N293        N  0.64060040  0.67011789  0.40549477    -0.89600
H294        H  0.63374768  0.70459965  0.45776781     0.18100
H295        H  0.57741380  0.70490716  0.34430743     0.18000
N296        N  0.57013599  0.73959956  0.39710286    -0.88700
H297        H  0.62842804  0.65086614  0.42582170     0.35400
H298        H  0.66716641  0.68939630  0.41303383     0.40500
H299        H  0.54384360  0.72030184  0.38875805     0.40100
H300        H  0.58265192  0.75948612  0.37741309     0.35000
C301        C  0.59756120  0.72513510  0.09649564    -0.26700
C302        C  0.58946690  0.70882199  0.06253533    -0.14800
C303        C  0.58180075  0.67407303  0.05938472     0.35900
C304        C  0.58321198  0.65687109  0.08961398    -0.26200
C305        C  0.59139659  0.67293398  0.12382222    -0.15400
C306        C  0.59880697  0.70775063  0.12717063     0.36900
N307        N  0.60741296  0.72543511  0.16148014    -0.89600
H308        H  0.60359892  0.75184327  0.09902172     0.18100
H309        H  0.57699300  0.63017683  0.08604669     0.18000
N310        N  0.57133353  0.65538720  0.02564986    -0.88700
H311        H  0.61046520  0.74997289  0.15943087     0.35400
H312        H  0.63234394  0.73158838  0.16928581     0.40500
H313        H  0.54595681  0.63129875  0.02863270     0.40100
H314        H  0.58936664  0.64904592  0.01931271     0.35000
C315        C  0.68330500  0.62059334  0.40134360    -0.26700
C316        C  0.68106911  0.60173148  0.37051620    -0.14800
C317        C  0.69858589  0.58436380  0.37008953     0.35900
C318        C  0.71601846  0.58447993  0.40137878    -0.26200
C319        C  0.71615142  0.60142698  0.43310204    -0.15400
C320        C  0.70101957  0.62120043  0.43234385     0.36900
N321        N  0.70323900  0.64155276  0.46312097    -0.89600
H322        H  0.67056883  0.63453831  0.40139907     0.18100
H323        H  0.72789671  0.56966918  0.40142936     0.18000
N324        N  0.69716873  0.56522644  0.33862446    -0.88700
H325        H  0.69024510  0.65398449  0.45827083     0.35400
H326        H  0.73026434  0.66218080  0.46726473     0.40500
H327        H  0.67050927  0.54353307  0.33470029     0.40100
H328        H  0.71170018  0.55427898  0.34263223     0.35000
C329        C  0.68084941  0.59618473  0.06082585    -0.26700
C330        C  0.70391461  0.58517733  0.06407138    -0.14800
C331        C  0.70984977  0.57666108  0.09865225     0.35900
C332        C  0.69245011  0.57915892  0.12857369    -0.26200
C333        C  0.66862465  0.58908029  0.12470393    -0.15400
C334        C  0.66343155  0.59840712  0.09040333     0.36900
N335        N  0.64048135  0.61022677  0.08558349    -0.89600
H336        H  0.67600713  0.60317729  0.03486208     0.18100
H337        H  0.69640473  0.57189608  0.15487209     0.18000
N338        N  0.73289417  0.56503545  0.10347019    -0.88700
H339        H  0.63901323  0.61542053  0.05856997     0.35400
H340        H  0.65210649  0.63465610  0.09925729     0.40500
H341        H  0.72023587  0.53961359  0.09159688     0.40100
H342        H  0.73556967  0.56154818  0.13069520     0.35000
C343        C  0.55658500  0.46404689  0.44078046    -0.26700
C344        C  0.52988672  0.42697666  0.43941156    -0.14800
C345        C  0.51077829  0.41154087  0.40702575     0.35900
C346        C  0.51791505  0.43365362  0.37736420    -0.26200
C347        C  0.54379773  0.47109795  0.37913959    -0.15400
C348        C  0.56393517  0.48612293  0.41130004     0.36900
N349        N  0.59266955  0.52347221  0.41485716    -0.89600
H350        H  0.57192851  0.47614478  0.46522231     0.18100
H351        H  0.50234188  0.42152631  0.35307369     0.18000
N352        N  0.48301588  0.37388147  0.40386403    -0.88700
H353        H  0.58246883  0.53890917  0.41395887     0.35400
H354        H  0.61072929  0.53066777  0.39384860     0.40500
H355        H  0.46409135  0.36673868  0.42395594     0.40100
H356        H  0.49422967  0.35958096  0.40759927     0.35000
C357        C  0.50852971  0.45956326  0.10218118    -0.26700
C358        C  0.52594952  0.45764875  0.13213523    -0.14800
C359        C  0.53718123  0.43456173  0.13106303     0.35900
C360        C  0.53265111  0.41564712  0.09918080    -0.26200
C361        C  0.51800326  0.42010053  0.06819430    -0.15400
C362        C  0.50461549  0.44141015  0.07037114     0.36900
N363        N  0.48679718  0.44517489  0.04098330    -0.89600
H364        H  0.49901954  0.47650937  0.10305135     0.18100
H365        H  0.54253708  0.39900915  0.09794481     0.18000
N366        N  0.55473576  0.43179567  0.16153052    -0.88700
H367        H  0.46618163  0.41957752  0.03179761     0.35400
H368        H  0.50506906  0.45942824  0.02035053     0.40500
H369        H  0.57909377  0.45684511  0.16522919     0.40100
H370        H  0.56100977  0.41342296  0.15638822     0.35000
C371        C  0.80604928  0.57022674  0.02713971    -0.26700
C372        C  0.78524800  0.56531330  0.49842019    -0.14800
C373        C  0.78217770  0.54098909  0.47219969     0.35900
C374        C  0.80475461  0.52948866  0.47362597    -0.26200
C375        C  0.83073988  0.54133671  0.50065693    -0.15400
C376        C  0.82897636  0.55920388  0.02911394     0.36900
N377        N  0.85310308  0.57173067  0.05887701    -0.89600
H378        H  0.80708024  0.58716496  0.04834558     0.18100
H379        H  0.80152341  0.51059293  0.45346955     0.18000
N380        N  0.75567548  0.52641406  0.44438778    -0.88700
H381        H  0.87915220  0.58395025  0.04928190     0.35400
H382        H  0.84576186  0.54959543  0.07457092     0.40500
H383        H  0.76117794  0.54719240  0.42737544     0.40100
H384        H  0.73049710  0.51471990  0.45605508     0.35000
C385        C  0.27709103  0.52641391  0.03282775    -0.26700
C386        C  0.26392894  0.52925325  0.50104173    -0.14800
C387        C  0.27879815  0.52505502  0.46981108     0.35900
C388        C  0.31246720  0.53099987  0.47131597    -0.26200
C389        C  0.33217632  0.54101174  0.50338017    -0.15400
C390        C  0.30962406  0.52994575  0.03435434     0.36900
N391        N  0.32565875  0.53406499  0.06871928    -0.89600
H392        H  0.26505750  0.52641011  0.05785397     0.18100
H393        H  0.32257376  0.52640475  0.44723501     0.18000
N394        N  0.25948710  0.51352717  0.43656765    -0.88700
H395        H  0.30750187  0.51172605  0.08434189     0.35400
H396        H  0.33008219  0.55695668  0.08114086     0.40500
H397        H  0.25596644  0.48960951  0.42865796     0.40100
H398        H  0.27514127  0.53306262  0.41722062     0.35000
C399        C  0.90937031  0.50249259  0.12870664    -0.26700
C400        C  0.92783371  0.48654181  0.12445055    -0.14800
C401        C  0.92873517  0.47370794  0.09017149     0.35900
C402        C  0.91318803  0.47919582  0.06085323    -0.26200
C403        C  0.89630297  0.49695375  0.06460574    -0.15400
C404        C  0.89382433  0.50791235  0.09930494     0.36900
N405        N  0.87659517  0.52556774  0.10500907    -0.89600
H406        H  0.90819074  0.51227921  0.15482982     0.18100
H407        H  0.91471162  0.46968790  0.03473284     0.18000
N408        N  0.94559706  0.45533576  0.08505369    -0.88700
H409        H  0.89524385  0.55084183  0.11635454     0.35400
H410        H  0.85594709  0.51053759  0.12348635     0.40500
H411        H  0.94449619  0.44823365  0.05813025     0.40100
H412        H  0.93087403  0.43129116  0.09946224     0.35000
C413        C  0.91271345  0.51243436  0.37012794    -0.26700
C414        C  0.92438602  0.48986976  0.37141508    -0.14800
C415        C  0.91805453  0.46969370  0.40263125     0.35900
C416        C  0.90277181  0.47433042  0.43276340    -0.26200
C417        C  0.89331194  0.49879818  0.43258970    -0.15400
C418        C  0.89735416  0.51714415  0.40041972     0.36900
N419        N  0.88755514  0.54185074  0.39876564    -0.89600
H420        H  0.91720189  0.52791288  0.34615502     0.18100
H421        H  0.89903216  0.45913285  0.45674467     0.18000
N422        N  0.92724559  0.44446133  0.40386478    -0.88700
H423        H  0.86871739  0.53342824  0.37819933     0.35400
H424        H  0.91031130  0.56715431  0.39199614     0.40500
H425        H  0.90398435  0.41904013  0.40941566     0.40100
H426        H  0.94514066  0.45172676  0.42509702     0.35000
C427        C  0.91632537  0.32140695  0.09940278    -0.26700
C428        C  0.93998767  0.32941046  0.07096738    -0.14800
C429        C  0.97652901  0.35754514  0.07511168     0.35900
C430        C  0.98818558  0.37909770  0.10591903    -0.26200
C431        C  0.96412557  0.37293563  0.13305561    -0.15400
C432        C  0.92804058  0.34306408  0.13047174     0.36900
N433        N  0.90312779  0.33597147  0.15841866    -0.89600
H434        H  0.88820898  0.29975967  0.09644272     0.18100
H435        H  0.01610951  0.40135991  0.10827535     0.18000
N436        N  0.00185002  0.36470356  0.04780916    -0.88700
H437        H  0.87767675  0.31298484  0.15235484     0.35400
H438        H  0.90076057  0.35748880  0.15920955     0.40500
H439        H  0.02143767  0.36260485  0.05928245     0.40100
H440        H  0.01424716  0.39124809  0.03937435     0.35000
C441        C  0.96947305  0.39956722  0.41340932    -0.26700
C442        C  0.96355117  0.38372138  0.37927008    -0.14800
C443        C  0.94578357  0.34585594  0.37719117     0.35900
C444        C  0.93465361  0.32546055  0.40869193    -0.26200
C445        C  0.94055245  0.34156955  0.44257477    -0.15400
C446        C  0.95810895  0.37927741  0.44465597     0.36900
N447        N  0.96338039  0.39788992  0.47774420    -0.89600
H448        H  0.98273843  0.42830184  0.41623976     0.18100
H449        H  0.92101437  0.29658918  0.40658217     0.18000
N450        N  0.93840737  0.32705060  0.34385850    -0.88700
H451        H  0.98096547  0.39625291  0.49399713     0.35400
H452        H  0.93869484  0.38608812  0.49056037     0.40500
H453        H  0.96254898  0.33721283  0.33057123     0.40100
H454        H  0.92186167  0.33088602  0.32826830     0.35000
C455        C  0.09830232  0.47428171  0.09838741    -0.26700
C456        C  0.11695927  0.49200538  0.13000742    -0.14800
C457        C  0.15456538  0.51005282  0.13091097     0.35900
C458        C  0.17264209  0.51189370  0.09935540    -0.26200
C459        C  0.15390445  0.49637563  0.06705001    -0.15400
C460        C  0.11617962  0.47604593  0.06727490     0.36900
N461        N  0.09568024  0.45695667  0.03592360    -0.89600
H462        H  0.06942525  0.45946636  0.09742269     0.18100
H463        H  0.20157227  0.52702708  0.09957596     0.18000
N464        N  0.17442371  0.52766166  0.16316355    -0.88700
H465        H  0.07878375  0.42965548  0.04225628     0.35400
H466        H  0.07978814  0.46588472  0.02932113     0.40500
H467        H  0.17224156  0.54890853  0.16840564     0.40100
H468        H  0.20165560  0.53914424  0.15937080     0.35000
C469        C  0.15293904  0.51604190  0.37400882    -0.26700
C470        C  0.11567560  0.49813081  0.37637923    -0.14800
C471        C  0.09809986  0.48035399  0.40851243     0.35900
C472        C  0.11830843  0.48305789  0.43819112    -0.26200
C473        C  0.15581971  0.50264422  0.43668067    -0.15400
C474        C  0.17313465  0.51847319  0.40380913     0.36900
N475        N  0.21119665  0.53799274  0.40070532    -0.89600
H476        H  0.16665522  0.52924170  0.34927051     0.18100
H477        H  0.10443244  0.46970556  0.46278439     0.18000
N478        N  0.05970270  0.45930584  0.41087002    -0.88700
H479        H  0.22137238  0.56430258  0.39299212     0.35400
H480        H  0.21674035  0.52608454  0.38026952     0.40500
H481        H  0.05102656  0.44829700  0.43645835     0.40100
H482        H  0.04941949  0.43762273  0.39309066     0.35000
C483        C  0.06779892  0.61631179  0.06372487    -0.26700
C484        C  0.10157861  0.64960316  0.06442736    -0.14800
C485        C  0.12233648  0.65987894  0.09606830     0.35900
C486        C  0.10934292  0.63663280  0.12577035    -0.26200
C487        C  0.07624986  0.60278032  0.12433270    -0.15400
C488        C  0.05492221  0.59289292  0.09316893     0.36900
N489        N  0.02018589  0.55915410  0.09152549    -0.89600
H490        H  0.05125706  0.60827299  0.03989604     0.18100
H491        H  0.12591492  0.64453763  0.14958696     0.18000
N492        N  0.15724094  0.69303613  0.09775809    -0.88700
H493        H  0.00810264  0.55573992  0.06658347     0.35400
H494        H  0.00398777  0.56008643  0.11061007     0.40500
H495        H  0.17573600  0.68707798  0.10321558     0.40100
H496        H  0.15770760  0.70813705  0.11921700     0.35000
C497        C  0.05409415  0.60036652  0.39742078    -0.26700
C498        C  0.07846794  0.60990632  0.36946573    -0.14800
C499        C  0.11323798  0.64193380  0.37182138     0.35900
C500        C  0.12338535  0.66293057  0.40320780    -0.26200
C501        C  0.09955424  0.65195342  0.43217661    -0.15400
C502        C  0.06425985  0.62100425  0.42862771     0.36900
N503        N  0.03862193  0.61024858  0.45671866    -0.89600
H504        H  0.02706158  0.57614134  0.39537682     0.18100
H505        H  0.15052616  0.68680737  0.40578879     0.18000
N506        N  0.13847288  0.65206712  0.34327602    -0.88700
H507        H  0.02952017  0.58427885  0.46473269     0.35400
H508        H  0.01683974  0.60922408  0.44623023     0.40500
H509        H  0.14370818  0.63255463  0.34162317     0.40100
H510        H  0.16283983  0.67639041  0.34931675     0.35000
C511        C  0.82591022  0.21207061  0.03042780    -0.26700
C512        C  0.84289715  0.23120910  0.50137107    -0.14800
C513        C  0.82643127  0.21262009  0.46906591     0.35900
C514        C  0.78997931  0.18404788  0.46885083    -0.26200
C515        C  0.76955562  0.17303875  0.50049913    -0.15400
C516        C  0.78948945  0.18365494  0.03098542     0.36900
N517        N  0.77300727  0.16741740  0.06458402    -0.89600
H518        H  0.84016906  0.22129895  0.05574781     0.18100
H519        H  0.77755804  0.17091950  0.44354626     0.18000
N520        N  0.84647661  0.22248156  0.43643526    -0.88700
H521        H  0.76997414  0.20091546  0.57806812     0.35400
H522        H  0.78101188  0.17153336  0.58388168     0.40500
H523        H  0.83432611  0.22913382  0.41753093     0.40100
H524        H  0.83853506  0.21019408  0.91630765     0.35000
C525        C  0.51654288  0.27706163  0.03295806    -0.26700
C526        C  0.50043146  0.25499615  0.49825323    -0.14800
C527        C  0.49324722  0.26860060  0.46811467     0.35900
C528        C  0.49654448  0.30114844  0.47082695    -0.26200
C529        C  0.50631997  0.32052474  0.50328053    -0.15400
C530        C  0.52002371  0.30982677  0.03443083     0.36900
N531        N  0.52865675  0.32853959  0.06800414    -0.89600
H532        H  0.52037389  0.26677097  0.05735084     0.18100
H533        H  0.49112765  0.31111713  0.44722350     0.18000
N534        N  0.48193924  0.24926918  0.43479134    -0.88700
H535        H  0.55282253  0.33373984  0.07724864     0.35400
H536        H  0.50867531  0.31156389  0.08642818     0.40500
H537        H  0.50016224  0.26599486  0.41497827     0.40100
H538        H  0.45696192  0.24365535  0.42810765     0.35000
C539        C  0.63519439  0.08009440  0.12128937    -0.26700
C540        C  0.60602298  0.08268846  0.12105466    -0.14800
C541        C  0.60043549  0.09748039  0.09069705     0.35900
C542        C  0.62341928  0.10859152  0.06139297    -0.26200
C543        C  0.65217742  0.10538430  0.06115252    -0.15400
C544        C  0.65810048  0.09099080  0.09164338     0.36900
N545        N  0.68606626  0.08570741  0.09276780    -0.89600
H546        H  0.63967219  0.06865129  0.14430702     0.18100
H547        H  0.61865057  0.11989595  0.03845867     0.18000
N548        N  0.57221327  0.10242626  0.08907217    -0.88700
H549        H  0.71063457  0.11072540  0.09104252     0.35400
H550        H  0.68319699  0.07002559  0.07065772     0.40500
H551        H  0.57409352  0.11731274  0.11148136     0.40100
H552        H  0.54764997  0.07728054  0.08947191     0.35000
C553        C  0.61059245  0.10811070  0.39700408    -0.26700
C554        C  0.61717661  0.09416653  0.36701710    -0.14800
C555        C  0.64610498  0.09087757  0.36768051     0.35900
C556        C  0.66670097  0.10010954  0.39929290    -0.26200
C557        C  0.65827268  0.11182191  0.42995106    -0.15400
C558        C  0.63078910  0.11698737  0.42824276     0.36900
N559        N  0.62331835  0.13139987  0.45827336    -0.89600
H560        H  0.58894703  0.11138353  0.39650584     0.18100
H561        H  0.68816659  0.09656290  0.40058373     0.18000
N562        N  0.65345946  0.07683266  0.33708205    -0.88700
H563        H  0.59663269  0.11275999  0.46569535     0.35400
H564        H  0.62620334  0.15488077  0.45000714     0.40500
H565        H  0.63166403  0.05006425  0.33358868     0.40100
H566        H  0.67575251  0.07642451  0.34197976     0.35000
C567        C  0.48578660  0.11811624  0.05714536    -0.26700
C568        C  0.49415930  0.15287906  0.06196848    -0.14800
C569        C  0.49844823  0.16616783  0.09739081     0.35900
C570        C  0.49676586  0.14548645  0.12648969    -0.26200
C571        C  0.49067642  0.11169481  0.12123011    -0.15400
C572        C  0.48382915  0.09753085  0.08601857     0.36900
N573        N  0.47480238  0.06218607  0.07907574    -0.89600
H574        H  0.48100695  0.10658023  0.03050150     0.18100
H575        H  0.50130853  0.15643842  0.15337402     0.18000
N576        N  0.50509345  0.20068473  0.10392829    -0.88700
H577        H  0.49355063  0.06444322  0.06115416     0.35400
H578        H  0.44983768  0.04718592  0.06638199     0.40500
H579        H  0.53073407  0.22025917  0.09444357     0.40100
H580        H  0.50552943  0.20538783  0.13147475     0.35000
C581        C  0.53097420  0.13706987  0.39590500    -0.26700
C582        C  0.50911850  0.13153513  0.36658205    -0.14800
C583        C  0.48968462  0.14703149  0.36737572     0.35900
C584        C  0.49031036  0.16489011  0.39850898    -0.26200
C585        C  0.50984084  0.16752350  0.42897568    -0.15400
C586        C  0.53164736  0.15474885  0.42681009     0.36900
N587        N  0.55511513  0.15955143  0.45531856    -0.89600
H588        H  0.54703632  0.12657923  0.39524752     0.18100
H589        H  0.47401883  0.17514759  0.39949377     0.18000
N590        N  0.46773306  0.14354118  0.33792997    -0.88700
H591        H  0.54003253  0.14403246  0.47729623     0.35400
H592        H  0.57111967  0.18673528  0.46265421     0.40500
H593        H  0.44912397  0.11621424  0.33228747     0.40100
H594        H  0.48404523  0.15605725  0.31551516     0.35000
C595        C  0.21681091  0.82544715  0.02681395    -0.26700
C596        C  0.24364058  0.83471575  0.49866688    -0.14800
C597        C  0.23779742  0.81107474  0.47039697     0.35900
C598        C  0.20765236  0.77527807  0.47140290    -0.26200
C599        C  0.18342428  0.76229098  0.50013814    -0.15400
C600        C  0.18772992  0.78925637  0.02861601     0.36900
N601        N  0.16593374  0.77754940  0.06013431    -0.89600
H602        H  0.22246228  0.84252342  0.04988846     0.18100
H603        H  0.20360495  0.75714949  0.44994020     0.18000
N604        N  0.26276438  0.82301526  0.44124626    -0.88700
H605        H  0.16826631  0.75900141  0.07372653     0.35400
H606        H  0.13928019  0.76540487  0.05241582     0.40500
H607        H  0.25388484  0.80249212  0.42230429     0.40100
H608        H  0.28674157  0.82870573  0.45172910     0.35000
C609        C  0.33064333  0.91262936  0.09553844    -0.26700
C610        C  0.33585891  0.93735301  0.06928724    -0.14800
C611        C  0.36030559  0.97444642  0.07600991     0.35900
C612        C  0.38157880  0.98607864  0.10698918    -0.26200
C613        C  0.37828414  0.96127112  0.13182043    -0.15400
C614        C  0.35161445  0.92427117  0.12691609     0.36900
N615        N  0.34760571  0.89860599  0.15248700    -0.89600
H616        H  0.31160547  0.88405395  0.09068570     0.18100
H617        H  0.40128068  0.01462688  0.11138777     0.18000
N618        N  0.36359106  0.00032403  0.05143204    -0.88700
H619        H  0.32791230  0.87237615  0.14397581     0.35400
H620        H  0.33823027  0.90249842  0.17632819     0.40500
H621        H  0.39010394  0.01661627  0.04273161     0.40100
H622        H  0.35809685  0.01660411  0.06537451     0.35000
C623        C  0.40168208  0.98574558  0.40899810    -0.26700
C624        C  0.38910199  0.96691126  0.37639126    -0.14800
C625        C  0.35374070  0.93553934  0.37450122     0.35900
C626        C  0.33238912  0.92308651  0.40534226    -0.26200
C627        C  0.34562594  0.94098767  0.43846468    -0.15400
C628        C  0.38054171  0.97328952  0.43983119     0.36900
N629        N  0.39528068  0.99340837  0.47246507    -0.89600
H630        H  0.42847033  0.01030697  0.41088641     0.18100
H631        H  0.30565849  0.89848547  0.40339636     0.18000
N632        N  0.33969435  0.91537634  0.34180143    -0.88700
H633        H  0.40237100  0.01944873  0.46814650     0.35400
H634        H  0.41857182  0.99515479  0.47855436     0.40500
H635        H  0.31663903  0.91379674  0.33498668     0.40100
H636        H  0.33225218  0.88926282  0.34654441     0.35000
C637        C  0.55360581  0.79374625  0.47130570    -0.26700
C638        C  0.57369389  0.79472298  0.50037602    -0.14800
C639        C  0.56863153  0.81074759  0.03219631     0.35900
C640        C  0.55560421  0.83204215  0.03022547    -0.26200
C641        C  0.54912273  0.83936166  0.49931947    -0.15400
C642        C  0.54134877  0.81561881  0.47036819     0.36900
N643        N  0.52006678  0.81199660  0.44018852    -0.89600
H644        H  0.54665419  0.77523311  0.44922080     0.18100
H645        H  0.55695176  0.84629874  0.05421135     0.18000
N646        N  0.58347674  0.80984193  0.06568622    -0.88700
H647        H  0.53362043  0.83621182  0.42608739     0.35400
H648        H  0.49560798  0.80600300  0.44941138     0.40500
H649        H  0.60955897  0.81743139  0.06135321     0.40100
H650        H  0.56778767  0.78374207  0.07589500     0.35000
C651        C  0.52476555  0.90801746  0.09452289    -0.26700
C652        C  0.49853553  0.89576778  0.06771052    -0.14800
C653        C  0.46914112  0.89777122  0.07358876     0.35900
C654        C  0.46744535  0.91319130  0.10520070    -0.26200
C655        C  0.49462516  0.92716121  0.13106357    -0.15400
C656        C  0.52334364  0.92408557  0.12589963     0.36900
N657        N  0.55244461  0.93899253  0.15089083    -0.89600
H658        H  0.54761281  0.90700943  0.09017056     0.18100
H659        H  0.44531487  0.91547084  0.10905549     0.18000
N660        N  0.44059301  0.88437522  0.04812395    -0.88700
H661        H  0.54233565  0.92638246  0.17560796     0.35400
H662        H  0.56378935  0.96645637  0.15394956     0.40500
H663        H  0.43045372  0.85765608  0.04203554     0.40100
H664        H  0.45046642  0.89973020  0.02477968     0.35000
C665        C  0.51925526  0.96269157  0.41052403    -0.26700
C666        C  0.50802924  0.94381617  0.37774558    -0.14800
C667        C  0.50144231  0.90940209  0.37611292     0.35900
C668        C  0.50611886  0.89477932  0.40696761    -0.26200
C669        C  0.51658482  0.91355005  0.43972458    -0.15400
C670        C  0.52347340  0.94797656  0.44125529     0.36900
N671        N  0.53552343  0.96857477  0.47385061    -0.89600
H672        H  0.52513884  0.98937373  0.41251924     0.18100
H673        H  0.50056544  0.86820807  0.40549895     0.18000
N674        N  0.48915025  0.88875277  0.34359969    -0.88700
H675        H  0.51722494  0.97442519  0.48076286     0.35400
H676        H  0.56024250  0.99285921  0.46897001     0.40500
H677        H  0.46450288  0.86445311  0.34873947     0.40100
H678        H  0.50738849  0.88289990  0.33649264     0.35000
C679        C  0.52608798  0.85700135  0.99898898     0.79800
N680        N  0.52179405  0.87063548  0.96842924    -0.78500
C681        C  0.50905940  0.89128783  0.97009195     0.82300
N682        N  0.51076044  0.90354105  0.50457044    -0.78400
C683        C  0.51408775  0.88971056  0.53509579     0.82400
N684        N  0.52702689  0.86933862  0.53336298    -0.80100
C685        C  0.27260066  0.87657301  0.99827169     0.79800
N686        N  0.28916280  0.88849578  0.53246114    -0.78500
C687        C  0.31965965  0.92224115  0.53444460     0.82300
N688        N  0.33693639  0.93939221  0.50383469    -0.78400
C689        C  0.32410913  0.92649994  0.97060847     0.82400
N690        N  0.29167270  0.89415510  0.96828967    -0.80100
O691        O  0.40243754  0.97719437  0.81278612    -0.75700
O692        O  0.44909473  0.00614974  0.85209331    -0.54600
C693        C  0.41544323  0.98589173  0.84479312     0.78000
O694        O  0.50202804  0.94727837  0.69235702    -0.60300
O695        O  0.49658584  0.97980093  0.64978612    -0.53300
C696        C  0.50009185  0.95488295  0.65964491     0.70100
O697        O  0.49798302  0.94933893  0.81288777    -0.74800
O698        O  0.50076968  0.98967589  0.85144981    -0.55400
C699        C  0.49925901  0.96107908  0.84473124     0.76100
O700        O  0.39709854  0.97244798  0.69191405    -0.60000
O701        O  0.44083281  0.99667419  0.64930453    -0.53100
C702        C  0.40797615  0.97861522  0.65926458     0.72700
Zr703      Zr  0.42452937  0.98941097  0.75112534     2.54700
O704        O  0.37461066  0.92616841  0.75279208    -0.80500
O705        O  0.38414951  0.00804722  0.75100565    -0.94000
Zr706      Zr  0.49795856  0.96782564  0.75136941     2.64700
O707        O  0.44969734  0.90385533  0.75132364    -0.98900
O708        O  0.54432007  0.95724282  0.75514113    -0.81000
O709        O  0.46161888  0.97925708  0.78537486    -0.84300
O710        O  0.45898834  0.97544139  0.71695540    -2.19000
O711        O  0.49865147  0.11112733  0.68352071    -0.67700
O712        O  0.49651788  0.07077149  0.64540171    -0.52300
C713        C  0.49682408  0.09869296  0.65175854     0.71000
O714        O  0.60305036  0.08903818  0.80485407    -0.60600
O715        O  0.55862115  0.06677878  0.84651584    -0.52600
C716        C  0.59164716  0.08401851  0.83737833     0.72800
O717        O  0.59725936  0.08070909  0.68339246    -0.72000
O718        O  0.55005099  0.05563450  0.64463164    -0.50700
C719        C  0.58360449  0.07326837  0.65158042     0.74200
O720        O  0.50718266  0.11997100  0.80528065    -0.67400
O721        O  0.50686908  0.08318122  0.84690518    -0.54600
C722        C  0.50847609  0.11128076  0.83784287     0.72600
Zr723      Zr  0.50176958  0.09440732  0.74542570     2.77500
O724        O  0.54728037  0.15904653  0.74263358    -0.98100
O725        O  0.45225604  0.10044157  0.74744356    -0.78900
Zr726      Zr  0.57548202  0.07294407  0.74517699     2.70100
O727        O  0.62021367  0.13756304  0.74074535    -0.77200
O728        O  0.62092573  0.06088916  0.74444476    -0.99300
Zr729      Zr  0.50225589  0.03450471  0.81540719     2.21500
Zr730      Zr  0.49710264  0.02700677  0.68095926     2.11100
O731        O  0.53785016  0.08258503  0.71110748    -2.47900
O732        O  0.54046714  0.08608704  0.77944537    -0.80000
O733        O  0.46142384  0.03997544  0.71386630    -0.72200
O734        O  0.53860560  0.02217655  0.78255118    -2.33100
O735        O  0.46385188  0.04397613  0.78266893    -2.29300
O736        O  0.53570890  0.01819636  0.71406837    -0.73900
H737        H  0.44354193  0.95442177  0.70216128     0.78100
H738        H  0.55318072  0.01882268  0.79829644     0.79200
H739        H  0.55205668  0.10180979  0.69427868     0.81400
H740        H  0.45042357  0.04889788  0.79845667     0.79000
H741        H  0.53104318  0.93080597  0.75702473     0.42000
H742        H  0.64318987  0.08371260  0.75242152     0.41000
H743        H  0.61442623  0.14790182  0.76057785     0.40700
H744        H  0.56544808  0.16365718  0.76067276     0.38600
H745        H  0.46370757  0.12634202  0.75195444     0.41700
H746        H  0.35991444  0.98524253  0.75076693     0.36500
H747        H  0.38375077  0.91454574  0.76666480     0.42600
H748        H  0.43551009  0.90039840  0.77296874     0.39100
H749        H  0.55924945  0.16294637  0.71931882     0.44000
H750        H  0.38683098  0.01840388  0.72684972     0.42700
H751        H  0.43404113  0.90046562  0.73102878     0.42800
H752        H  0.61452599  0.04403048  0.76452478     0.43200
C753        C  0.50685860  0.22419669  0.99971886     0.79800
N754        N  0.49754065  0.20472206  0.52711314    -0.78500
C755        C  0.49882791  0.17567072  0.52622367     0.82300
N756        N  0.50251485  0.16408964  0.49414229    -0.78400
C757        C  0.50987738  0.18172874  0.96675686     0.82400
N758        N  0.51115774  0.21214566  0.96814257    -0.80100
C759        C  0.67397678  0.11332165  0.52720053     0.79800
N760        N  0.65754982  0.10546134  0.49487620    -0.78500
C761        C  0.67615424  0.12076160  0.96500767     0.82300
N762        N  0.71224373  0.13964139  0.96626383    -0.78400
C763        C  0.72966852  0.14721688  0.99816886     0.82400
N764        N  0.71015361  0.13400970  0.52870358    -0.80100
O765        O  0.10597481  0.50038280  0.81268168    -0.75700
O766        O  0.06789969  0.50063326  0.85194200    -0.54600
C767        C  0.09542382  0.50076483  0.84464050     0.78000
O768        O  0.06919652  0.59052643  0.68566561    -0.60300
O769        O  0.04553147  0.54325908  0.64667080    -0.53300
C770        C  0.06147005  0.57683498  0.65386097     0.70100
O771        O  0.07355701  0.59701872  0.80745768    -0.74800
O772        O  0.04879670  0.55232432  0.84912243    -0.55400
C773        C  0.06601581  0.58546819  0.84003284     0.76100
O774        O  0.10599415  0.49723656  0.69092773    -0.60000
O775        O  0.06630508  0.49164871  0.64956874    -0.53100
C776        C  0.09507882  0.49461750  0.65841940     0.72700
Zr777      Zr  0.08502060  0.49762475  0.75133726     2.54700
O778        O  0.14831660  0.54689917  0.75122002    -0.80500
O779        O  0.09842567  0.45297853  0.75051224    -0.94000
Zr780      Zr  0.06158161  0.56959067  0.74741471     2.64700
O781        O  0.12605675  0.61436398  0.74492752    -0.98900
O782        O  0.05098884  0.61619401  0.74429183    -0.81000
O783        O  0.07465408  0.53587429  0.78387209    -0.84300
O784        O  0.07371826  0.53273940  0.71484847    -2.19000
O785        O  0.96810969  0.38931669  0.69520769    -0.67700
O786        O  0.99323493  0.43308775  0.65250046    -0.52300
C787        C  0.97577953  0.40011826  0.66257828     0.71000
O788        O  0.93594690  0.49119318  0.80896393    -0.60600
O789        O  0.97451797  0.49383340  0.84988372    -0.52600
C790        C  0.94631882  0.49207076  0.84138313     0.72800
O791        O  0.93967317  0.49158647  0.68664436    -0.72000
O792        O  0.97384804  0.48527649  0.64728484    -0.50700
C793        C  0.94838842  0.48843858  0.65467964     0.74200
O794        O  0.96780350  0.39637016  0.81530613    -0.67400
O795        O  0.99324927  0.44384422  0.85361153    -0.54600
C796        C  0.97513286  0.40996787  0.84702667     0.72600
Zr797      Zr  0.97985969  0.41787880  0.75370730     2.77500
O798        O  0.91538728  0.37255959  0.75291067    -0.98100
O799        O  0.99171878  0.37239643  0.76005481    -0.78900
Zr800      Zr  0.95671466  0.48988344  0.74859490     2.70100
O801        O  0.89411646  0.43891325  0.74610449    -0.80200
O802        O  0.94011760  0.53202994  0.74892713    -0.99300
Zr803      Zr  0.02141545  0.49669290  0.81698673     2.21500
Zr804      Zr  0.02021732  0.49012444  0.68296450     2.11100
O805        O  0.96706287  0.45143696  0.71663316    -2.47900
O806        O  0.96762981  0.45476673  0.78564545    -0.80000
O807        O  0.03222501  0.45519524  0.71865730    -0.72200
O808        O  0.00912195  0.53185574  0.78182439    -2.33100
O809        O  0.03307912  0.45867365  0.78628650    -2.29300
O810        O  0.00889601  0.52837734  0.71398778    -0.73900
H811        H  0.09345134  0.54746672  0.69860886     0.78100
H812        H  0.00457649  0.54626141  0.79664072     0.79200
H813        H  0.94698795  0.43545604  0.70115491     0.81400
H814        H  0.03763205  0.44551351  0.80275502     0.79000
H815        H  0.03415847  0.61066681  0.76409638     0.42000
H816        H  0.95564999  0.55014282  0.73062241     0.41000
H817        H  0.89276787  0.42054087  0.76159196     0.40700
H818        H  0.91257748  0.34932721  0.75400496     0.38600
H819        H  0.97137158  0.35073115  0.74793558     0.41700
H820        H  0.07618779  0.43076230  0.74148998     0.36500
H821        H  0.14875412  0.56884166  0.74930336     0.42600
H822        H  0.12896967  0.63754998  0.74220380     0.39100
H823        H  0.90703302  0.37480662  0.77660400     0.44000
H824        H  0.09981144  0.44788576  0.77598357     0.42700
H825        H  0.13459836  0.61517362  0.76957204     0.42800
H826        H  0.91577923  0.51841482  0.73828685     0.43200
C827        C  0.22435567  0.51674309  0.00044005     0.79800
N828        N  0.20961296  0.51473753  0.53331731    -0.78500
C829        C  0.17526870  0.50482384  0.53365840     0.82300
N830        N  0.15878199  0.50131278  0.50216960    -0.78400
C831        C  0.17509103  0.50917558  0.96984157     0.82400
N832        N  0.20817198  0.51596289  0.96937319    -0.80100
C833        C  0.92696211  0.31172282  0.53732902     0.79800
N834        N  0.94192562  0.33128190  0.50711419    -0.78500
C835        C  0.92479234  0.31907962  0.97311802     0.82300
N836        N  0.89428659  0.28533030  0.97067855    -0.78400
C837        C  0.87914490  0.26465492  0.00039137     0.82400
N838        N  0.89552613  0.27882826  0.53491803    -0.80100
C839        C  0.85161233  0.52405260  0.00160661     0.79800
N840        N  0.86128455  0.51770672  0.96951741    -0.78500
C841        C  0.88187499  0.50512513  0.96804493     0.82300
N842        N  0.89328795  0.50060875  0.49828840    -0.78400
C843        C  0.88516107  0.50811980  0.53046069     0.82400
N844        N  0.86534289  0.52178818  0.53125237    -0.80100
C845        C  0.15158361  0.72653989  0.00002969     0.79800
N846        N  0.13785920  0.70870474  0.96839658    -0.78500
C847        C  0.11251232  0.67273750  0.96771037     0.82300
N848        N  0.09917861  0.65287330  0.49782937    -0.78400
C849        C  0.11214280  0.66952067  0.52996506     0.82400
N850        N  0.13908865  0.70515928  0.53068083    -0.80100
O851        O  0.66494495  0.60031574  0.68758604    -0.75700
O852        O  0.62133170  0.58880143  0.64810465    -0.54600
C853        C  0.65239434  0.59616443  0.65553560     0.78000
O854        O  0.54594853  0.48398085  0.81602312    -0.60300
O855        O  0.56259146  0.52956757  0.85527640    -0.53300
C856        C  0.55245901  0.49738167  0.84802861     0.70100
O857        O  0.54014389  0.47898489  0.69400328    -0.74800
O858        O  0.55083695  0.52077252  0.65240715    -0.55400
C859        C  0.54139776  0.48920878  0.66148576     0.76100
O860        O  0.66938313  0.60218925  0.80932324    -0.60000
O861        O  0.63005206  0.59620588  0.85139668    -0.53100
C862        C  0.65952746  0.60088869  0.84202690     0.72700
Zr863      Zr  0.64587902  0.59977778  0.74937532     2.54700
O864        O  0.67913952  0.57320948  0.74483610    -0.80500
O865        O  0.70183605  0.65962793  0.75055800    -0.94000
Zr866      Zr  0.55025872  0.50515672  0.75419918     2.64700
O867        O  0.58376428  0.47863015  0.75366541    -0.98900
O868        O  0.49376730  0.44588622  0.75620682    -0.81000
O869        O  0.59680668  0.55070981  0.71744568    -0.84300
O870        O  0.59966629  0.55347393  0.78582365    -2.19000
O871        O  0.60670424  0.67708341  0.81008381    -0.67700
O872        O  0.59464372  0.63471944  0.85153204    -0.52300
C873        C  0.60376211  0.66621825  0.84256477     0.71000
O874        O  0.47726953  0.55056272  0.69509529    -0.60600
O875        O  0.51775023  0.55909611  0.65315847    -0.52600
C876        C  0.48723178  0.55196065  0.66246668     0.72800
O877        O  0.48035622  0.54921916  0.81597626    -0.72000
O878        O  0.52465765  0.56275308  0.85541666    -0.50700
C879        C  0.49254478  0.55244592  0.84796005     0.74200
O880        O  0.59738832  0.67107241  0.69015280    -0.67400
O881        O  0.58453350  0.62672871  0.65068459    -0.54600
C882        C  0.59232147  0.65808848  0.65823247     0.72600
Zr883      Zr  0.59877954  0.65102732  0.75040878     2.77500
O884        O  0.57457438  0.68675190  0.75102631    -0.98100
O885        O  0.66061873  0.70315001  0.74494814    -0.78900
Zr886      Zr  0.50271462  0.55691752  0.75478515     2.70100
O887        O  0.47913807  0.59319114  0.75693200    -0.80200
O888        O  0.44338411  0.50040479  0.75619758    -0.99300
Zr889      Zr  0.57125533  0.57543291  0.68472390     2.21500
Zr890      Zr  0.57674345  0.58037693  0.81973723     2.11100
O891        O  0.55169485  0.60552516  0.78690166    -2.47900
O892        O  0.54904441  0.60285576  0.71842932    -0.80000
O893        O  0.62442543  0.62728663  0.78472372    -0.72200
O894        O  0.52403667  0.52881479  0.72049723    -2.33100
O895        O  0.62165698  0.62497393  0.71509332    -2.29300
O896        O  0.52679629  0.53121933  0.78862713    -0.73900
H897        H  0.60920282  0.54389024  0.80120516     0.78100
H898        H  0.50485116  0.51012337  0.70571420     0.79200
H899        H  0.54307747  0.61580347  0.80284160     0.81400
H900        H  0.63922313  0.64243613  0.69824175     0.79000
H901        H  0.47547691  0.45022427  0.75033740     0.42000
H902        H  0.44180374  0.48772918  0.73390479     0.41000
H903        H  0.48717401  0.60593780  0.78031804     0.40700
H904        H  0.55655330  0.67635612  0.77048375     0.38600
H905        H  0.66523439  0.71756963  0.76684765     0.41700
H906        H  0.70728772  0.66664700  0.72509305     0.36500
H907        H  0.66185919  0.54789383  0.75214868     0.42600
H908        H  0.60209648  0.49151345  0.77272244     0.39100
H909        H  0.59427228  0.71071348  0.76010462     0.44000
H910        H  0.72005656  0.65555982  0.75810089     0.42700
H911        H  0.56687710  0.45409757  0.76329257     0.42800
H912        H  0.44479120  0.48640913  0.77558588     0.43200
C913        C  0.51875448  0.35866582  0.00269436     0.79800
N914        N  0.51039217  0.37070755  0.53550534    -0.78500
C915        C  0.51515222  0.40310416  0.53572684     0.82300
N916        N  0.52505864  0.42174884  0.00265209    -0.78400
C917        C  0.52740437  0.40815991  0.97123824     0.82400
N918        N  0.52425177  0.37655949  0.97132796    -0.80100
C919        C  0.35947689  0.53076768  0.00253201     0.79800
N920        N  0.37568507  0.53226485  0.97112574    -0.78500
C921        C  0.40589575  0.53299146  0.97138307     0.82300
N922        N  0.41950866  0.53205261  0.00326887    -0.78400
C923        C  0.40797087  0.53880316  0.53626201     0.82400
N924        N  0.37874780  0.53962528  0.53571885    -0.80100
C925        C  0.75765195  0.57150552  0.99854051     0.79800
N926        N  0.74938585  0.58229849  0.53044099    -0.78500
C927        C  0.72685382  0.59284459  0.53074290     0.82300
N928        N  0.71242590  0.59158947  0.99900061    -0.78400
C929        C  0.72650329  0.59072894  0.96749935     0.82400
N930        N  0.74896775  0.58029269  0.96734492    -0.80100
C931        C  0.58010946  0.76786830  0.00113071     0.79800
N932        N  0.58749074  0.75585803  0.53073880    -0.78500
C933        C  0.59584432  0.73165736  0.53003716     0.82300
N934        N  0.59868897  0.72114782  0.99834859    -0.78400
C935        C  0.59794734  0.73643432  0.96765393     0.82400
N936        N  0.58850133  0.75974086  0.96920679    -0.80100
C937        C  0.44332762  0.55322717  0.87588123    -0.26700
C938        C  0.46800446  0.54426624  0.87835673    -0.14800
C939        C  0.46980064  0.52883787  0.91029519     0.35900
C940        C  0.44826073  0.52439489  0.93948813    -0.26200
C941        C  0.42491588  0.53516548  0.93791345    -0.15400
C942        C  0.42215018  0.54938640  0.90542813     0.36900
N943        N  0.39906900  0.56119440  0.90279683    -0.89600
H944        H  0.44179680  0.56491870  0.85129376     0.18100
H945        H  0.45012342  0.51270714  0.96388478     0.18000
N946        N  0.49350328  0.51773866  0.91304159    -0.88700
H947        H  0.39966499  0.57024394  0.87689270     0.35400
H948        H  0.40943157  0.58345906  0.91979216     0.40500
H949        H  0.48473135  0.49675369  0.89471907     0.40100
H950        H  0.49191523  0.50727520  0.93847622     0.35000
C951        C  0.46161739  0.52535105  0.60308997    -0.26700
C952        C  0.46216346  0.54449035  0.63292754    -0.14800
C953        C  0.44146807  0.55849249  0.63232382     0.35900
C954        C  0.42212270  0.55446120  0.60106073    -0.26200
C955        C  0.42339517  0.53710619  0.57047683    -0.15400
C956        C  0.44241131  0.52130286  0.57200623     0.36900
N957        N  0.44271662  0.50172626  0.54179692    -0.89600
H958        H  0.47699951  0.51411614  0.60377320     0.18100
H959        H  0.40753315  0.56656969  0.59994294     0.18000
N960        N  0.44210062  0.57882795  0.66227537    -0.88700
H961        H  0.41657619  0.47899692  0.53797234     0.35400
H962        H  0.45849075  0.49238600  0.54716774     0.40500
H963        H  0.42876543  0.56095827  0.68347277     0.40100
H964        H  0.42752771  0.58941461  0.65636807     0.35000
C965        C  0.62141636  0.70665269  0.93510036    -0.26700
C966        C  0.60495048  0.72488340  0.93322289    -0.14800
C967        C  0.59325433  0.72855899  0.89939294     0.35900
C968        C  0.59614892  0.71179956  0.86906282    -0.26200
C969        C  0.60939947  0.69069560  0.87213827    -0.15400
C970        C  0.62360722  0.68948125  0.90514198     0.36900
N971        N  0.63945963  0.66999636  0.90830284    -0.89600
H972        H  0.63164817  0.70459709  0.96047963     0.18100
H973        H  0.58548759  0.71293880  0.84354159     0.18000
N974        N  0.57679621  0.74743725  0.89605382    -0.88700
H975        H  0.64809268  0.67115677  0.93457596     0.35400
H976        H  0.66228504  0.68293530  0.89214966     0.40500
H977        H  0.55201187  0.73207132  0.90894267     0.40100
H978        H  0.57130970  0.74896055  0.86915674     0.35000
C979        C  0.58584437  0.72075516  0.59628406    -0.26700
C980        C  0.59758167  0.71513292  0.56368982    -0.14800
C981        C  0.60958681  0.69258790  0.56363463     0.35900
C982        C  0.60854575  0.67561065  0.59514053    -0.26200
C983        C  0.59597731  0.68031917  0.62733319    -0.15400
C984        C  0.58501030  0.70369646  0.62817296     0.36900
N985        N  0.57146977  0.70871349  0.66068996    -0.89600
H986        H  0.57654809  0.73790628  0.59686136     0.18100
H987        H  0.61724992  0.65798124  0.59416865     0.18000
N988        N  0.62265600  0.68630784  0.53168698    -0.88700
H989        H  0.56211076  0.72460369  0.65596619     0.35400
H990        H  0.59299383  0.72337928  0.67845778     0.40500
H991        H  0.60675218  0.65864695  0.52634683     0.40100
H992        H  0.64879225  0.69425883  0.53649732     0.35000
C993        C  0.68339107  0.62005154  0.90360636    -0.26700
C994        C  0.68260057  0.60349138  0.87154655    -0.14800
C995        C  0.70049515  0.58652637  0.86981425     0.35900
C996        C  0.71663684  0.58445349  0.90100723    -0.26200
C997        C  0.71520124  0.59894291  0.93378088    -0.15400
C998        C  0.70003294  0.61868426  0.93444997     0.36900
N999        N  0.70117718  0.63702219  0.96649926    -0.89600
H1000       H  0.67031311  0.63365490  0.90477366     0.18100
H1001       H  0.72865121  0.56977498  0.90007661     0.18000
N1002       N  0.70067813  0.56988296  0.83705106    -0.88700
H1003       H  0.68838274  0.64978142  0.96254270     0.35400
H1004       H  0.72805622  0.65732201  0.97190304     0.40500
H1005       H  0.67432870  0.54821515  0.83164057     0.40100
H1006       H  0.71547577  0.55912014  0.84020394     0.35000
C1007       C  0.69459128  0.61435295  0.56310195    -0.26700
C1008       C  0.71122745  0.59617636  0.56460178    -0.14800
C1009       C  0.71058633  0.58032190  0.59751665     0.35900
C1010       C  0.69286877  0.58241889  0.62739898    -0.26200
C1011       C  0.67476416  0.59892358  0.62499304    -0.15400
C1012       C  0.67634076  0.61573175  0.59265384     0.36900
N1013       N  0.65935601  0.63415087  0.58988977    -0.89600
H1014       H  0.69531433  0.62730669  0.53848721     0.18100
H1015       H  0.69160639  0.56944008  0.65224333     0.18000
N1016       N  0.72665857  0.56104185  0.60038035    -0.88700
H1017       H  0.66267876  0.64483754  0.56420844     0.35400
H1018       H  0.67244782  0.65598819  0.60764569     0.40500
H1019       H  0.71165608  0.53797044  0.58437272     0.40100
H1020       H  0.72473491  0.55205085  0.62661468     0.35000
C1021       C  0.56246697  0.46627613  0.93938284    -0.26700
C1022       C  0.53539295  0.42929580  0.93799841    -0.14800
C1023       C  0.51514916  0.41440211  0.90612005     0.35900
C1024       C  0.52175231  0.43688318  0.87691327    -0.26200
C1025       C  0.54795288  0.47426125  0.87879930    -0.15400
C1026       C  0.56910754  0.48877581  0.91045013     0.36900
N1027       N  0.59812746  0.52601802  0.91398692    -0.89600
H1028       H  0.57850529  0.47797917  0.96350750     0.18100
H1029       H  0.50541482  0.42514567  0.85299640     0.18000
N1030       N  0.48660804  0.37697503  0.90324607    -0.88700
H1031       H  0.58809745  0.54162633  0.91410686     0.35400
H1032       H  0.61553043  0.53324692  0.89235326     0.40500
H1033       H  0.46836543  0.37043945  0.92392002     0.40100
H1034       H  0.49719691  0.36204556  0.90648281     0.35000
C1035       C  0.51193626  0.46404414  0.60287180    -0.26700
C1036       C  0.53087551  0.46311403  0.63189360    -0.14800
C1037       C  0.54095848  0.43905072  0.63091236     0.35900
C1038       C  0.53342922  0.41784287  0.59997098    -0.26200
C1039       C  0.51683527  0.42091056  0.56983453    -0.15400
C1040       C  0.50481776  0.44343745  0.57209305     0.36900
N1041       N  0.48492424  0.44578030  0.54389463    -0.89600
H1042       H  0.50323636  0.48168865  0.60376317     0.18100
H1043       H  0.54241293  0.40042860  0.59862581     0.18000
N1044       N  0.56021260  0.43744630  0.66044891    -0.88700
H1045       H  0.46323751  0.41980739  0.53694966     0.35400
H1046       H  0.50138732  0.45827763  0.52163472     0.40500
H1047       H  0.58506729  0.46235131  0.66212927     0.40100
H1048       H  0.56547063  0.41828021  0.65549825     0.35000
C1049       C  0.81131265  0.57736640  0.52535631    -0.26700
C1050       C  0.78217151  0.56001390  0.99835877    -0.14800
C1051       C  0.78172727  0.53830822  0.97072569     0.35900
C1052       C  0.80434902  0.52700557  0.97289940    -0.26200
C1053       C  0.82802718  0.53682532  0.00187479    -0.15400
C1054       C  0.83400182  0.56593339  0.52669146     0.36900
N1055       N  0.86033628  0.58035503  0.55455326    -0.89600
H1056       H  0.81431309  0.59613427  0.54554376     0.18100
H1057       H  0.80304529  0.50996616  0.95164984     0.18000
N1058       N  0.75795420  0.52627661  0.94059273    -0.88700
H1059       H  0.88548798  0.59131025  0.54310306     0.35400
H1060       H  0.85390394  0.55938391  0.57165081     0.40500
H1061       H  0.76471007  0.54856227  0.92531336     0.40100
H1062       H  0.73172621  0.51320131  0.94992187     0.35000
C1063       C  0.28440290  0.54098716  0.53277825    -0.26700
C1064       C  0.26010050  0.52271668  0.00001870    -0.14800
C1065       C  0.27721877  0.52373811  0.96793873     0.35900
C1066       C  0.30966024  0.52695456  0.96944714    -0.26200
C1067       C  0.32603386  0.52945402  0.00234010    -0.15400
C1068       C  0.31838521  0.54725859  0.53426157     0.36900
N1069       N  0.33875814  0.55992940  0.56703733    -0.89600
H1070       H  0.27384248  0.54521289  0.55672110     0.18100
H1071       H  0.32175489  0.52698076  0.94445993     0.18000
N1072       N  0.26177206  0.52103761  0.93360259    -0.88700
H1073       H  0.32461872  0.56269962  0.58721218     0.35400
H1074       H  0.36177639  0.58570209  0.56221967     0.40500
H1075       H  0.25756166  0.49869940  0.92015252     0.40100
H1076       H  0.28024075  0.54403741  0.91889424     0.35000
C1077       C  0.91636630  0.51188092  0.62673589    -0.26700
C1078       C  0.92880703  0.49009948  0.62403913    -0.14800
C1079       C  0.92488269  0.47269471  0.59119818     0.35900
C1080       C  0.90970284  0.47824652  0.56163514    -0.26200
C1081       C  0.89836968  0.50117510  0.56377194    -0.15400
C1082       C  0.90158506  0.51782474  0.59701215     0.36900
N1083       N  0.89129389  0.54195192  0.60065662    -0.89600
H1084       H  0.91955599  0.52575741  0.65168739     0.18100
H1085       H  0.90717859  0.46465155  0.53669885     0.18000
N1086       N  0.93613541  0.44922041  0.58769043    -0.88700
H1087       H  0.91374895  0.56702326  0.60875545     0.35400
H1088       H  0.87214340  0.53226139  0.62098918     0.40500
H1089       H  0.95516157  0.45908805  0.56721266     0.40100
H1090       H  0.91400079  0.42382329  0.57988141     0.35000
C1091       C  0.91120677  0.51217180  0.87035908    -0.26700
C1092       C  0.92493386  0.49141496  0.87156972    -0.14800
C1093       C  0.92080210  0.47244968  0.90310266     0.35900
C1094       C  0.90527262  0.47623562  0.93340416    -0.26200
C1095       C  0.89375380  0.49896554  0.93337508    -0.15400
C1096       C  0.89590939  0.51646982  0.90105627     0.36900
N1097       N  0.88398305  0.53957342  0.89970234    -0.89600
H1098       H  0.91423108  0.52666403  0.84605041     0.18100
H1099       H  0.90299329  0.46171805  0.95743779     0.18000
N1100       N  0.93262658  0.44937243  0.90458136    -0.88700
H1101       H  0.88649745  0.54940185  0.87375262     0.35400
H1102       H  0.90116500  0.56193650  0.91596117     0.40500
H1103       H  0.91065836  0.42343856  0.91096579     0.40100
H1104       H  0.95133228  0.45845883  0.92538008     0.35000
C1105       C  0.91718445  0.32054119  0.60100068    -0.26700
C1106       C  0.94114669  0.32908399  0.57265606    -0.14800
C1107       C  0.97747395  0.35761586  0.57696003     0.35900
C1108       C  0.98842983  0.37940968  0.60749669    -0.26200
C1109       C  0.96392020  0.37298516  0.63418883    -0.15400
C1110       C  0.92824424  0.34237544  0.63183980     0.36900
N1111       N  0.90306598  0.33468130  0.65972942    -0.89600
H1112       H  0.88925929  0.29835249  0.59811194     0.18100
H1113       H  0.01613241  0.40202132  0.61003149     0.18000
N1114       N  0.00325501  0.36486448  0.55016622    -0.88700
H1115       H  0.87798779  0.31107495  0.65387050     0.35400
H1116       H  0.89967540  0.35552218  0.66015974     0.40500
H1117       H  0.02284200  0.36310996  0.56224892     0.40100
H1118       H  0.01556487  0.39130467  0.54142567     0.35000
C1119       C  0.96899425  0.40114570  0.91282648    -0.26700
C1120       C  0.96217059  0.38554968  0.87851746    -0.14800
C1121       C  0.94328248  0.34756935  0.87585768     0.35900
C1122       C  0.93209259  0.32682076  0.90705780    -0.26200
C1123       C  0.93899723  0.34265367  0.94120950    -0.15400
C1124       C  0.95755641  0.38050815  0.94380815     0.36900
N1125       N  0.96411315  0.39906374  0.97719716    -0.89600
H1126       H  0.98322680  0.42997311  0.91600969     0.18100
H1127       H  0.91771551  0.29789441  0.90446580     0.18000
N1128       N  0.93485252  0.32896856  0.84224038    -0.88700
H1129       H  0.98162882  0.39663700  0.99266525     0.35400
H1130       H  0.93984043  0.38794110  0.99062323     0.40500
H1131       H  0.95860893  0.33834676  0.82850425     0.40100
H1132       H  0.91866874  0.33372349  0.82722028     0.35000
C1133       C  0.09906451  0.47305172  0.59874674    -0.26700
C1134       C  0.11685858  0.49504731  0.62869969    -0.14800
C1135       C  0.15469128  0.51799991  0.62881269     0.35900
C1136       C  0.17369258  0.51953270  0.59820129    -0.26200
C1137       C  0.15555709  0.49867924  0.56759639    -0.15400
C1138       C  0.11792429  0.47416054  0.56867542     0.36900
N1139       N  0.09863824  0.45007248  0.53930603    -0.89600
H1140       H  0.07017091  0.45502555  0.59846445     0.18100
H1141       H  0.20257866  0.53829228  0.59762292     0.18000
N1142       N  0.17358981  0.54073322  0.65926183    -0.88700
H1143       H  0.08474522  0.42373888  0.54894947     0.35400
H1144       H  0.07987819  0.45448871  0.53010487     0.40500
H1145       H  0.16690568  0.55911808  0.66143594     0.40100
H1146       H  0.20122231  0.55582605  0.65510872     0.35000
C1147       C  0.15335977  0.52039393  0.87387927    -0.26700
C1148       C  0.11589373  0.50096167  0.87555824    -0.14800
C1149       C  0.09816859  0.48269172  0.90748531     0.35900
C1150       C  0.11827770  0.48569816  0.93736619    -0.26200
C1151       C  0.15584072  0.50618182  0.93636041    -0.15400
C1152       C  0.17347439  0.52334894  0.90402663     0.36900
N1153       N  0.21171779  0.54480006  0.90191707    -0.89600
H1154       H  0.16721004  0.53437882  0.84946097     0.18100
H1155       H  0.10425507  0.47158397  0.96163052     0.18000
N1156       N  0.05971312  0.46080637  0.90942137    -0.88700
H1157       H  0.22061662  0.57093122  0.89480898     0.35400
H1158       H  0.21882894  0.53437766  0.88137452     0.40500
H1159       H  0.05094069  0.44960831  0.93494964     0.40100
H1160       H  0.05007574  0.43929451  0.89157469     0.35000
C1161       C  0.06477255  0.61413308  0.56195062    -0.26700
C1162       C  0.09795162  0.64797752  0.56335950    -0.14800
C1163       C  0.11748731  0.65923432  0.59587033     0.35900
C1164       C  0.10444262  0.63605564  0.62541395    -0.26200
C1165       C  0.07228760  0.60161533  0.62327441    -0.15400
C1166       C  0.05161169  0.59096816  0.59155670     0.36900
N1167       N  0.01728293  0.55682862  0.58957374    -0.89600
H1168       H  0.04901579  0.60546891  0.53752099     0.18100
H1169       H  0.12033093  0.64461432  0.64977637     0.18000
N1170       N  0.15121978  0.69352961  0.59884594    -0.88700
H1171       H  0.00564866  0.55298655  0.56428638     0.35400
H1172       H  0.00046945  0.55759671  0.60795335     0.40500
H1173       H  0.17068457  0.68928640  0.60567029     0.40100
H1174       H  0.14946362  0.70774493  0.61984274     0.35000
C1175       C  0.05374500  0.60031783  0.89929182    -0.26700
C1176       C  0.07698778  0.61126012  0.86991990    -0.14800
C1177       C  0.11081851  0.64460471  0.87137438     0.35900
C1178       C  0.12123986  0.66544100  0.90298963    -0.26200
C1179       C  0.09877502  0.65312118  0.93321915    -0.15400
C1180       C  0.06426884  0.62077309  0.93075412     0.36900
N1181       N  0.03977462  0.60840501  0.96019267    -0.89600
H1182       H  0.02736579  0.57510915  0.89817961     0.18100
H1183       H  0.14773778  0.69039020  0.90467110     0.18000
N1184       N  0.13504942  0.65633815  0.84162441    -0.88700
H1185       H  0.03275857  0.58295968  0.96763130     0.35400
H1186       H  0.01661999  0.60566259  0.95131939     0.40500
H1187       H  0.14212051  0.63830124  0.83891814     0.40100
H1188       H  0.15873299  0.68151510  0.84702272     0.35000
C1189       C  0.82310707  0.21866602  0.53326333    -0.26700
C1190       C  0.84318225  0.22982184  0.99836806    -0.14800
C1191       C  0.82414364  0.21581272  0.96572670     0.35900
C1192       C  0.78773746  0.18738747  0.96629856    -0.26200
C1193       C  0.76948365  0.17219701  0.99879474    -0.15400
C1194       C  0.78698722  0.18990327  0.53325723     0.36900
N1195       N  0.76818816  0.17889942  0.56669572    -0.89600
H1196       H  0.83521342  0.23203190  0.55857102     0.18100
H1197       H  0.77350509  0.17832375  0.94095556     0.18000
N1198       N  0.84112961  0.23073947  0.93189051    -0.88700
H1199       H  0.77642409  0.18744211  0.08170127     0.35400
H1200       H  0.78641348  0.15724715  0.07580488     0.40500
H1201       H  0.82749376  0.23981555  0.91885129     0.40100
H1202       H  0.84496134  0.19998269  0.42690280     0.35000
C1203       C  0.50932057  0.27387717  0.53094884    -0.26700
C1204       C  0.50904703  0.25814808  0.00052364    -0.14800
C1205       C  0.50457829  0.27253084  0.96906872     0.35900
C1206       C  0.50810849  0.30520801  0.97054911    -0.26200
C1207       C  0.51571252  0.32423922  0.00285935    -0.15400
C1208       C  0.51228276  0.30625725  0.53376626     0.36900
N1209       N  0.52227732  0.32483422  0.56750069    -0.89600
H1210       H  0.51487905  0.26398958  0.55452256     0.18100
H1211       H  0.50432316  0.31541473  0.94606735     0.18000
N1212       N  0.49572869  0.25384186  0.93545575    -0.88700
H1213       H  0.54696393  0.33033156  0.57520585     0.35400
H1214       H  0.50325484  0.30761336  0.58656387     0.40500
H1215       H  0.51564332  0.27077598  0.91695379     0.40100
H1216       H  0.47153319  0.24868428  0.92640331     0.35000
C1217       C  0.63618027  0.08137951  0.62107022    -0.26700
C1218       C  0.60799383  0.08548371  0.62055299    -0.14800
C1219       C  0.60293428  0.10023267  0.58975850     0.35900
C1220       C  0.62518133  0.10938988  0.56016002    -0.26200
C1221       C  0.65258788  0.10423449  0.56015319    -0.15400
C1222       C  0.65844623  0.09051023  0.59121174     0.36900
N1223       N  0.68571048  0.08421113  0.59272246    -0.89600
H1224       H  0.64029601  0.07005512  0.64444671     0.18100
H1225       H  0.62095558  0.12070727  0.53684809     0.18000
N1226       N  0.57597156  0.10697144  0.58789669    -0.88700
H1227       H  0.71064852  0.10876349  0.59002630     0.35400
H1228       H  0.68191896  0.06745781  0.57128748     0.40500
H1229       H  0.57881969  0.12264137  0.60999576     0.40100
H1230       H  0.55078190  0.08249217  0.58860500     0.35000
C1231       C  0.60982280  0.11096664  0.89757025    -0.26700
C1232       C  0.61760342  0.09845500  0.86722694    -0.14800
C1233       C  0.64732233  0.09649086  0.86787721     0.35900
C1234       C  0.66739935  0.10542656  0.89977885    -0.26200
C1235       C  0.65768396  0.11549828  0.93077692    -0.15400
C1236       C  0.62952785  0.11961448  0.92910930     0.36900
N1237       N  0.62089169  0.13272632  0.95939776    -0.89600
H1238       H  0.58754477  0.11309796  0.89715387     0.18100
H1239       H  0.68949844  0.10283793  0.90099196     0.18000
N1240       N  0.65594257  0.08390234  0.83699343    -0.88700
H1241       H  0.59420205  0.11338165  0.96626743     0.35400
H1242       H  0.62318179  0.15604723  0.95164741     0.40500
H1243       H  0.63482496  0.05694289  0.83284837     0.40100
H1244       H  0.67871587  0.08436720  0.84193147     0.35000
C1245       C  0.48725485  0.12129431  0.55592479    -0.26700
C1246       C  0.49683133  0.15651556  0.55944974    -0.14800
C1247       C  0.50533172  0.17251551  0.59398052     0.35900
C1248       C  0.50414881  0.15285450  0.62385596    -0.26200
C1249       C  0.49538732  0.11781755  0.62001987    -0.15400
C1250       C  0.48646964  0.10197242  0.58538462     0.36900
N1251       N  0.47653133  0.06614605  0.57953668    -0.89600
H1252       H  0.48026773  0.10829327  0.52985244     0.18100
H1253       H  0.51118906  0.16546814  0.65009905     0.18000
N1254       N  0.51607509  0.20885415  0.59864181    -0.88700
H1255       H  0.49472951  0.06745174  0.56150852     0.35400
H1256       H  0.45138852  0.05124156  0.56718769     0.40500
H1257       H  0.54064227  0.22574844  0.58566546     0.40100
H1258       H  0.52063339  0.21621471  0.62572767     0.35000
C1259       C  0.53349912  0.13806796  0.89719630    -0.26700
C1260       C  0.51256506  0.13478441  0.86786552    -0.14800
C1261       C  0.49354433  0.15058213  0.87009992     0.35900
C1262       C  0.49447407  0.16740399  0.90213106    -0.26200
C1263       C  0.51343465  0.16815529  0.93224567    -0.15400
C1264       C  0.53406475  0.15423065  0.92918343     0.36900
N1265       N  0.55605727  0.15623595  0.95787176    -0.89600
H1266       H  0.54860497  0.12667723  0.89569954     0.18100
H1267       H  0.47880319  0.17831288  0.90408127     0.18000
N1268       N  0.47155243  0.14821255  0.84128157    -0.88700
H1269       H  0.53982281  0.14042230  0.97920018     0.35400
H1270       H  0.57313545  0.18300202  0.96634318     0.40500
H1271       H  0.45268908  0.12106681  0.83500435     0.40100
H1272       H  0.48776437  0.16115294  0.81892898     0.35000
C1273       C  0.21900613  0.82192584  0.52695945    -0.26700
C1274       C  0.23890759  0.83958996  0.99635703    -0.14800
C1275       C  0.22975240  0.81705514  0.96612984     0.35900
C1276       C  0.20101616  0.78065594  0.96808943    -0.26200
C1277       C  0.18038014  0.76588097  0.99943606    -0.15400
C1278       C  0.18909034  0.78627380  0.52799390     0.36900
N1279       N  0.16452448  0.77582393  0.55706228    -0.89600
H1280       H  0.22289864  0.83987261  0.54856017     0.18100
H1281       H  0.19547920  0.76370389  0.94493775     0.18000
N1282       N  0.24992713  0.83049861  0.93359551    -0.88700
H1283       H  0.16449359  0.75684769  0.57271056     0.35400
H1284       H  0.13891380  0.76455548  0.54655249     0.40500
H1285       H  0.23242125  0.82627118  0.91286958     0.40100
H1286       H  0.26012919  0.81555802  0.92779946     0.35000
C1287       C  0.33192389  0.91436455  0.59721119    -0.26700
C1288       C  0.33736054  0.93774387  0.56932804    -0.14800
C1289       C  0.36291879  0.97519530  0.57372261     0.35900
C1290       C  0.38456793  0.98800269  0.60443432    -0.26200
C1291       C  0.38097402  0.96431290  0.63077434    -0.15400
C1292       C  0.35355009  0.92733111  0.62802419     0.36900
N1293       N  0.34935021  0.90288088  0.65526524    -0.89600
H1294       H  0.31219723  0.88565192  0.59412281     0.18100
H1295       H  0.40478580  0.01656469  0.60772754     0.18000
N1296       N  0.36728977  0.99995350  0.54674831    -0.88700
H1297       H  0.32924697  0.87633465  0.64806723     0.35400
H1298       H  0.34043273  0.90830569  0.67849743     0.40500
H1299       H  0.38738336  0.02647270  0.55409209     0.40100
H1300       H  0.34345525  0.99811070  0.54542864     0.35000
C1301       C  0.40107428  0.99127646  0.90785057    -0.26700
C1302       C  0.39019048  0.97163894  0.87558549    -0.14800
C1303       C  0.35623148  0.93822554  0.87402068     0.35900
C1304       C  0.33501364  0.92462836  0.90509809    -0.26200
C1305       C  0.34635123  0.94375174  0.93775989    -0.15400
C1306       C  0.37951485  0.97802829  0.93857494     0.36900
N1307       N  0.39166568  0.99974411  0.97039799    -0.89600
H1308       H  0.42666304  0.01728606  0.90936238     0.18100
H1309       H  0.30959997  0.89852407  0.90373299     0.18000
N1310       N  0.34382578  0.91740128  0.84142508    -0.88700
H1311       H  0.39559589  0.02421828  0.96433237     0.35400
H1312       H  0.41636426  0.00509883  0.97779884     0.40500
H1313       H  0.33750294  0.93057784  0.82346256     0.40100
H1314       H  0.31994580  0.89217580  0.84578547     0.35000
C1315       C  0.55352399  0.79538543  0.96939997    -0.26700
C1316       C  0.56743086  0.79168029  0.00142257    -0.14800
C1317       C  0.58223043  0.81909737  0.52894460     0.35900
C1318       C  0.56986032  0.84092885  0.52806360    -0.26200
C1319       C  0.54107953  0.83520757  0.99830084    -0.15400
C1320       C  0.54051605  0.81664498  0.96740930     0.36900
N1321       N  0.52620079  0.81787953  0.93371978    -0.89600
H1322       H  0.55211394  0.78111333  0.94542520     0.18100
H1323       H  0.57660443  0.85936575  0.55017435     0.18000
N1324       N  0.60400933  0.82306940  0.55879853    -0.88700
H1325       H  0.54160524  0.84427708  0.92421605     0.35400
H1326       H  0.49974420  0.80935097  0.93743186     0.40500
H1327       H  0.62802129  0.82825551  0.54913025     0.40100
H1328       H  0.59046241  0.79927990  0.57357624     0.35000
C1329       C  0.53152330  0.91165523  0.59794994    -0.26700
C1330       C  0.50668965  0.89995034  0.56978888    -0.14800
C1331       C  0.47722589  0.90216679  0.57392523     0.35900
C1332       C  0.47520454  0.91910797  0.60410495    -0.26200
C1333       C  0.50141223  0.93326294  0.63096454    -0.15400
C1334       C  0.52914313  0.92821088  0.62852269     0.36900
N1335       N  0.55625123  0.94131265  0.65558569    -0.89600
H1336       H  0.55398756  0.90974385  0.59534928     0.18100
H1337       H  0.45319806  0.92179156  0.60632522     0.18000
N1338       N  0.44858716  0.88694252  0.54831484    -0.88700
H1339       H  0.54401392  0.92841871  0.67972375     0.35400
H1340       H  0.56868832  0.96893347  0.65884765     0.40500
H1341       H  0.43882735  0.85999981  0.54404480     0.40100
H1342       H  0.45805991  0.90088161  0.52418239     0.35000
C1343       C  0.50824257  0.95801468  0.91001729    -0.26700
C1344       C  0.50013599  0.94132498  0.87617651    -0.14800
C1345       C  0.49452448  0.90727509  0.87335725     0.35900
C1346       C  0.49825922  0.89162280  0.90411447    -0.26200
C1347       C  0.50651366  0.90868782  0.93773311    -0.15400
C1348       C  0.51162699  0.94233447  0.94041062     0.36900
N1349       N  0.52153791  0.96153944  0.97381395    -0.89600
H1350       H  0.51287436  0.98407994  0.91312754     0.18100
H1351       H  0.49395419  0.86563621  0.90197751     0.18000
N1352       N  0.48482561  0.88849462  0.83959368    -0.88700
H1353       H  0.50218386  0.96606286  0.98026953     0.35400
H1354       H  0.54596912  0.98651464  0.97029049     0.40500
H1355       H  0.45928095  0.88135609  0.83285121     0.40100
H1356       H  0.48266801  0.86443710  0.84202870     0.35000
loop_ 
_geom_bond_atom_site_label_1 
_geom_bond_atom_site_label_2 
_geom_bond_distance 
_geom_bond_site_symmetry_2 
_ccdc_geom_bond_type 
C1            N2   1.360       .  A
C1          N684   1.364       .  A
C1          C641   1.482       .  S
N2            C3   1.356       .  A
C3          N682   1.353       .  A
C3          C669   1.479       .  S
N4            C5   1.350       .  A
N4          C681   1.353   1_554  A
C5            N6   1.356       .  A
C5          C652   1.474       .  S
N6          C679   1.361   1_554  A
C7           N12   1.357       .  A
C7          N686   1.357       .  A
C7          C596   1.478       .  S
N8            C9   1.355       .  A
N8          C685   1.358   1_554  A
C9           N10   1.357       .  A
C9          C610   1.478       .  S
N10         C689   1.358   1_554  A
C11          N12   1.357       .  A
C11         N688   1.353       .  A
C11         C627   1.486       .  S
O13         Zr25   2.433       .  S
O13          C15   1.286       .  A
O14         Zr51   2.414       .  S
O14          C15   1.286   1_545  A
C15         C624   1.481       .  S
O16         Zr28   2.447       .  S
O16          C18   1.288       .  A
O17         Zr52   2.402   1_565  S
O17          C18   1.283       .  A
C18         C655   1.468       .  S
O19         Zr28   2.455       .  S
O19          C21   1.290       .  A
O20         Zr51   2.408   1_565  S
O20          C21   1.285       .  A
C21         C666   1.489       .  S
O22         Zr25   2.441       .  S
O22          C24   1.287       .  A
O23         Zr52   2.415   1_565  S
O23          C24   1.285       .  A
C24         C613   1.470       .  S
Zr25         O26   2.436       .  S
Zr25         O27   2.436       .  S
Zr25         O31   2.374       .  S
Zr25         O32   2.371       .  S
Zr25         O55   2.370   1_565  S
Zr25         O57   2.377   1_565  S
O26          H69   0.990       .  S
O27          H68   0.990   1_565  S
O27          H72   0.990       .  S
Zr28         O29   2.435       .  S
Zr28         O30   2.435       .  S
Zr28         O32   2.380       .  S
Zr28         O31   2.374       .  S
Zr28         O56   2.365   1_565  S
Zr28         O58   2.374   1_565  S
O29          H70   0.991       .  S
O29          H73   0.989       .  S
O30          H63   0.990       .  S
O31         Zr51   2.375   1_565  S
O32         Zr52   2.381   1_565  S
O32          H59   0.970       .  S
O33         Zr45   2.451       .  S
O33          C35   1.290       .  A
O34         Zr52   2.410       .  S
O34          C35   1.284       .  A
C35         C571   1.493       .  S
O36         Zr48   2.448       .  S
O36          C38   1.288       .  A
O37         Zr51   2.407       .  S
O37          C38   1.285       .  A
C38         C554   1.474       .  S
O39         Zr48   2.449       .  S
O39          C41   1.289       .  A
O40         Zr52   2.413       .  S
O40          C41   1.284       .  A
C41         C540   1.479       .  S
O42         Zr45   2.445       .  S
O42          C44   1.287       .  A
O43         Zr51   2.420       .  S
O43          C44   1.287       .  A
C44         C582   1.483       .  S
Zr45         O46   2.436       .  S
Zr45         O47   2.434       .  S
Zr45         O53   2.375       .  S
Zr45         O54   2.376       .  S
Zr45         O57   2.375       .  S
Zr45         O55   2.370       .  S
O46          H66   0.989       .  S
O46          H71   0.990       .  S
O47          H67   0.991       .  S
Zr48         O49   2.433       .  S
Zr48         O50   2.436       .  S
Zr48         O54   2.380       .  S
Zr48         O53   2.377       .  S
Zr48         O58   2.370       .  S
Zr48         O56   2.369       .  S
O49          H65   0.990       .  S
O50          H64   0.989       .  S
O50          H74   0.991       .  S
Zr51         O54   2.371       .  S
Zr51         O56   2.378       .  S
Zr51         O57   2.374       .  S
Zr52         O53   2.377       .  S
Zr52         O55   2.366       .  S
Zr52         O58   2.375       .  S
O53          H61   0.958       .  S
O56          H60   0.961       .  S
O57          H62   0.963       .  S
C75          N80   1.364       .  A
C75         N754   1.362       .  A
C75         C526   1.488       .  S
N76          C77   1.363       .  A
N76         C753   1.366   1_554  A
C77          N78   1.357   1_554  A
C77         C568   1.495       .  S
N78         C757   1.352       .  A
C79          N80   1.359       .  A
C79         N756   1.353       .  A
C79         C585   1.482       .  S
C81          N82   1.355   1_554  A
C81          N86   1.360       .  A
C81         C543   1.483       .  S
N82         C761   1.354       .  A
C83          N84   1.357       .  A
C83         N760   1.355       .  A
C83         C557   1.472       .  S
N84          C85   1.362       .  A
C85         N764   1.359       .  A
C85         C515   1.487       .  S
N86         C763   1.364   1_554  A
O87         Zr99   2.446       .  S
O87          C89   1.288       .  A
O88        Zr125   2.416       .  S
O88          C89   1.286       .  A
C89         C470   1.481       .  S
O90        Zr102   2.442       .  S
O90          C92   1.288       .  A
O91        Zr126   2.428       .  S
O91          C92   1.288       .  A
C92         C487   1.484       .  S
O93        Zr102   2.442       .  S
O93          C95   1.287       .  A
O94        Zr125   2.395       .  S
O94          C95   1.282       .  A
C95         C498   1.467       .  S
O96         Zr99   2.453       .  S
O96          C98   1.289       .  A
O97        Zr126   2.410       .  S
O97          C98   1.286       .  A
C98         C456   1.485       .  S
Zr99        O100   2.434       .  S
Zr99        O101   2.436       .  S
Zr99        O105   2.376       .  S
Zr99        O106   2.374       .  S
Zr99        O129   2.377       .  S
Zr99        O131   2.376       .  S
O100        H143   0.991       .  S
O101        H142   0.989       .  S
O101        H146   0.990       .  S
Zr102       O103   2.434       .  S
Zr102       O104   2.434       .  S
Zr102       O106   2.374       .  S
Zr102       O105   2.375       .  S
Zr102       O130   2.372       .  S
Zr102       O132   2.373       .  S
O103        H144   0.990       .  S
O103        H147   0.991       .  S
O104        H137   0.991       .  S
O105       Zr125   2.374       .  S
O106       Zr126   2.376       .  S
O106        H133   0.962       .  S
O107       Zr119   2.442       .  S
O107        C109   1.287       .  A
O108       Zr126   2.417   1_655  S
O108        C109   1.286       .  A
C109        C431   1.473       .  S
O110       Zr122   2.457       .  S
O110        C112   1.290       .  A
O111       Zr125   2.419   1_655  S
O111        C112   1.286       .  A
C112        C414   1.482       .  S
O113       Zr122   2.449       .  S
O113        C115   1.290       .  A
O114       Zr126   2.406   1_655  S
O114        C115   1.284       .  A
C115        C400   1.485       .  S
O116       Zr119   2.450       .  S
O116        C118   1.287       .  A
O117       Zr125   2.398   1_655  S
O117        C118   1.283       .  A
C118        C442   1.492       .  S
Zr119       O120   2.437       .  S
Zr119       O121   2.434       .  S
Zr119       O127   2.374       .  S
Zr119       O128   2.372       .  S
Zr119       O131   2.370   1_655  S
Zr119       O129   2.380   1_655  S
O120        H140   0.990       .  S
O120        H145   0.990       .  S
O121        H141   0.991       .  S
Zr122       O123   2.434       .  S
Zr122       O124   2.435       .  S
Zr122       O128   2.377       .  S
Zr122       O127   2.377       .  S
Zr122       O132   2.374   1_655  S
Zr122       O130   2.368   1_655  S
O123        H139   0.989       .  S
O124        H138   0.990       .  S
O124        H148   0.990       .  S
Zr125       O128   2.373   1_455  S
Zr125       O130   2.374       .  S
Zr125       O131   2.374       .  S
Zr126       O127   2.382   1_455  S
Zr126       O129   2.375       .  S
Zr126       O132   2.374       .  S
O127        H135   0.965       .  S
O130        H134   0.968       .  S
O131        H136   0.959       .  S
C149        N154   1.363       .  A
C149        N828   1.366       .  A
C149        C386   1.495       .  S
N150        C151   1.358       .  A
N150        C827   1.365       .  A
C151        N152   1.353       .  A
C151        C459   1.486       .  S
N152        C831   1.354   1_554  A
C153        N154   1.357       .  A
C153        N830   1.353       .  A
C153        C473   1.488       .  S
C155        N156   1.353       .  A
C155        N160   1.357       .  A
C155        C428   1.479       .  S
N156        C835   1.352   1_554  A
C157        N158   1.358       .  A
C157        N834   1.354       .  A
C157        C445   1.480       .  S
N158        C159   1.359       .  A
C159        N838   1.359       .  A
C159        C512   1.482       .  S
N160        C837   1.362       .  A
C161        N162   1.366       .  A
C161        N844   1.365       .  A
C161        C375   1.497       .  S
N162        C163   1.361       .  A
C163        N842   1.355       .  A
C163        C417   1.492       .  S
N164        C165   1.356   1_556  A
N164        C841   1.354       .  A
C165        N166   1.363       .  A
C165        C403   1.496       .  S
N166        C839   1.365       .  A
C167        N168   1.358       .  A
C167        N850   1.359       .  A
C167        C599   1.479       .  S
N168        C169   1.354       .  A
C169        N848   1.355       .  A
C169        C501   1.474       .  S
N170        C171   1.356   1_556  A
N170        C847   1.354       .  A
C171        N172   1.363       .  A
C171        C484   1.491       .  S
N172        C845   1.365       .  A
O173       Zr185   2.450       .  S
O173        C175   1.289       .  A
O174       Zr211   2.409       .  S
O174        C175   1.284       .  A
C175        C333   1.486       .  S
O176       Zr188   2.462       .  S
O176        C178   1.291       .  A
O177       Zr212   2.409       .  S
O177        C178   1.282       .  A
C178        C347   1.489       .  S
O179       Zr188   2.459       .  S
O179        C181   1.290       .  A
O180       Zr211   2.405       .  S
O180        C181   1.283       .  A
C181        C358   1.480       .  S
O182       Zr185   2.452       .  S
O182        C184   1.288       .  A
O183       Zr212   2.416       .  S
O183        C184   1.286       .  A
C184        C316   1.483       .  S
Zr185       O186   2.436       .  S
Zr185       O187   2.436       .  S
Zr185       O192   2.372       .  S
Zr185       O215   2.379       .  S
Zr185       O217   2.379       .  S
Zr185       O191   2.284       .  S
O186        H229   0.989       .  S
O187        H228   0.991       .  S
O187        H232   0.990       .  S
Zr188       O189   2.438       .  S
Zr188       O190   2.435       .  S
Zr188       O192   2.375       .  S
Zr188       O216   2.373       .  S
Zr188       O218   2.375       .  S
Zr188       O191   2.286       .  S
O189        H230   0.989       .  S
O189        H233   0.992       .  S
O190        H223   0.990       .  S
O191       Zr211   2.267       .  S
O192       Zr212   2.384       .  S
O192        H219   0.966       .  S
O193       Zr205   2.460       .  S
O193        C195   1.290       .  A
O194       Zr212   2.408       .  S
O194        C195   1.284       .  A
C195        C291   1.478       .  S
O196       Zr208   2.452       .  S
O196        C198   1.288       .  A
O197       Zr211   2.403       .  S
O197        C198   1.283       .  A
C198        C274   1.482       .  S
O199       Zr208   2.454       .  S
O199        C201   1.290       .  A
O200       Zr212   2.420       .  S
O200        C201   1.286       .  A
C201        C260   1.481       .  S
O202       Zr205   2.451       .  S
O202        C204   1.288       .  A
O203       Zr211   2.406       .  S
O203        C204   1.284       .  A
C204        C305   1.496       .  S
Zr205       O206   2.439       .  S
Zr205       O207   2.434       .  S
Zr205       O213   2.373       .  S
Zr205       O214   2.373       .  S
Zr205       O217   2.383       .  S
Zr205       O215   2.386       .  S
O206        H226   0.990       .  S
O206        H231   0.990       .  S
O207        H227   0.991       .  S
Zr208       O209   2.436       .  S
Zr208       O210   2.436       .  S
Zr208       O214   2.371       .  S
Zr208       O213   2.366       .  S
Zr208       O218   2.386       .  S
Zr208       O216   2.380       .  S
O209        H225   0.989       .  S
O210        H224   0.990       .  S
O210        H234   0.991       .  S
Zr211       O214   2.368       .  S
Zr211       O216   2.379       .  S
Zr211       O217   2.380       .  S
Zr212       O213   2.379       .  S
Zr212       O215   2.383       .  S
Zr212       O218   2.381       .  S
O213        H221   0.967       .  S
O216        H220   0.966       .  S
O217        H222   0.968       .  S
C235        N240   1.362       .  A
C235        N914   1.363       .  A
C235        C529   1.489       .  S
N236        C237   1.357       .  A
N236        C913   1.359       .  A
C237        N916   1.355       .  A
C237        C361   1.482       .  S
N238        C239   1.354       .  A
N238        C915   1.354       .  A
C239        N240   1.356       .  A
C239        C344   1.480       .  S
C241        N242   1.366       .  A
C241        N924   1.362       .  A
C241        C389   1.493       .  S
N242        C243   1.361       .  A
C243        N244   1.354       .  A
C243        C263   1.488       .  S
N244        C923   1.354       .  A
C245        N246   1.355       .  A
C245        N922   1.352       .  A
C245        C277   1.481       .  S
N246        C919   1.361       .  A
C247        N252   1.362       .  A
C247        N926   1.367       .  A
C247        C372   1.493       .  S
N248        C249   1.361       .  A
N248        C925   1.366   1_554  A
C249        N928   1.354   1_554  A
C249        C330   1.497       .  S
N250        C251   1.355       .  A
N250        C927   1.356       .  A
C251        N252   1.359       .  A
C251        C319   1.492       .  S
C253        N258   1.362       .  A
C253        N932   1.360       .  A
C253        C638   1.482       .  S
N254        C255   1.361       .  A
N254        C931   1.366       .  A
C255        N934   1.350   1_554  A
C255        C302   1.485       .  S
N256        C257   1.354       .  A
N256        C933   1.354       .  A
C257        N258   1.357       .  A
C257        C288   1.486       .  S
C259        C260   1.406       .  A
C259        C264   1.411       .  A
C259        H266   1.084       .  S
C260        C261   1.410       .  A
C261        C262   1.403       .  A
C261        N268   1.439       .  S
C262        C263   1.407       .  A
C262        H267   1.083       .  S
C263        C264   1.414       .  A
C264        N265   1.438       .  S
N265        H269   1.045       .  S
N265        H270   1.047       .  S
N268        H271   1.046       .  S
N268        H272   1.046       .  S
C273        C274   1.403       .  A
C273        C278   1.398       .  A
C273        H280   1.082       .  S
C274        C275   1.414       .  A
C275        C276   1.410       .  A
C275        N282   1.437       .  S
C276        C277   1.407       .  A
C276        H281   1.083       .  S
C277        C278   1.412       .  A
C278        N279   1.439       .  S
N279        H283   1.045       .  S
N279        H284   1.046       .  S
N282        H285   1.045       .  S
N282        H286   1.046       .  S
C287        C288   1.405       .  A
C287        C292   1.396       .  A
C287        H294   1.083       .  S
C288        C289   1.414       .  A
C289        C290   1.408       .  A
C289        N296   1.432       .  S
C290        C291   1.405       .  A
C290        H295   1.084       .  S
C291        C292   1.407       .  A
C292        N293   1.432       .  S
N293        H297   1.046       .  S
N293        H298   1.046       .  S
N296        H299   1.046       .  S
N296        H300   1.045       .  S
C301        C302   1.403       .  A
C301        C306   1.412       .  A
C301        H308   1.084       .  S
C302        C303   1.413       .  A
C303        C304   1.397       .  A
C303        N310   1.434       .  S
C304        C305   1.407       .  A
C304        H309   1.084       .  S
C305        C306   1.421       .  A
C306        N307   1.437       .  S
N307        H311   1.045       .  S
N307        H312   1.046       .  S
N310        H313   1.046       .  S
N310        H314   1.045       .  S
C315        C316   1.400       .  A
C315        C320   1.402       .  A
C315        H322   1.081       .  S
C316        C317   1.413       .  A
C317        C318   1.411       .  A
C317        N324   1.438       .  S
C318        C319   1.408       .  A
C318        H323   1.082       .  S
C319        C320   1.417       .  A
C320        N321   1.438       .  S
N321        H325   1.046       .  S
N321        H326   1.046       .  S
N324        H327   1.045       .  S
N324        H328   1.046       .  S
C329        C330   1.410       .  A
C329        C334   1.398       .  A
C329        H336   1.082       .  S
C330        C331   1.418       .  A
C331        C332   1.412       .  A
C331        N338   1.437       .  S
C332        C333   1.407       .  A
C332        H337   1.083       .  S
C333        C334   1.411       .  A
C334        N335   1.440       .  S
N335        H339   1.046       .  S
N335        H340   1.045       .  S
N338        H341   1.046       .  S
N338        H342   1.046       .  S
C343        C344   1.401       .  A
C343        C348   1.396       .  A
C343        H350   1.085       .  S
C344        C345   1.414       .  A
C345        C346   1.404       .  A
C345        N352   1.432       .  S
C346        C347   1.408       .  A
C346        H351   1.084       .  S
C347        C348   1.421       .  A
C348        N349   1.434       .  S
N349        H353   1.044       .  S
N349        H354   1.046       .  S
N352        H355   1.046       .  S
N352        H356   1.044       .  S
C357        C358   1.403       .  A
C357        C362   1.394       .  A
C357        H364   1.082       .  S
C358        C359   1.411       .  A
C359        C360   1.408       .  A
C359        N366   1.438       .  S
C360        C361   1.408       .  A
C360        H365   1.083       .  S
C361        C362   1.416       .  A
C362        N363   1.433       .  S
N363        H367   1.046       .  S
N363        H368   1.044       .  S
N366        H369   1.046       .  S
N366        H370   1.046       .  S
C371        C376   1.401       .  A
C371       C1050   1.403   1_554  A
C371        H378   1.084       .  S
C372        C373   1.419       .  A
C372       C1049   1.404       .  A
C373        C374   1.402       .  A
C373        N380   1.432       .  S
C374        C375   1.405       .  A
C374        H379   1.084       .  S
C375       C1054   1.420       .  A
C376       C1053   1.418       .  A
C376        N377   1.429       .  S
N377        H381   1.046       .  S
N377        H382   1.041       .  S
N380        H383   1.044       .  S
N380        H384   1.046       .  S
C385        C390   1.402       .  A
C385       C1064   1.405       .  A
C385        H392   1.083       .  S
C386        C387   1.416       .  A
C386       C1063   1.407       .  A
C387        C388   1.402       .  A
C387        N394   1.432       .  S
C388        C389   1.404       .  A
C388        H393   1.083       .  S
C389       C1068   1.418       .  A
C390       C1067   1.417       .  A
C390        N391   1.433       .  S
N391        H395   1.045       .  S
N391        H396   1.046       .  S
N394        H397   1.045       .  S
N394        H398   1.046       .  S
C399        C400   1.404       .  A
C399        C404   1.404       .  A
C399        H406   1.084       .  S
C400        C401   1.414       .  A
C401        C402   1.403       .  A
C401        N408   1.439       .  S
C402        C403   1.410       .  A
C402        H407   1.083       .  S
C403        C404   1.413       .  A
C404        N405   1.428       .  S
N405        H409   1.046       .  S
N405        H410   1.045       .  S
N408        H411   1.046       .  S
N408        H412   1.046       .  S
C413        C414   1.405       .  A
C413        C418   1.410       .  A
C413        H420   1.084       .  S
C414        C415   1.408       .  A
C415        C416   1.401       .  A
C415        N422   1.433       .  S
C416        C417   1.408       .  A
C416        H421   1.084       .  S
C417        C418   1.414       .  A
C418        N419   1.432       .  S
N419        H423   1.046       .  S
N419        H424   1.045       .  S
N422        H425   1.046       .  S
N422        H426   1.044       .  S
C427        C428   1.406       .  A
C427        C432   1.408       .  A
C427        H434   1.083       .  S
C428        C429   1.409       .  A
C429        C430   1.398       .  A
C429        N436   1.432   1_655  S
C430        C431   1.400       .  A
C430        H435   1.083   1_655  S
C431        C432   1.411       .  A
C432        N433   1.438       .  S
N433        H437   1.046       .  S
N433        H438   1.045       .  S
N436        H439   1.045       .  S
N436        H440   1.045       .  S
C441        C442   1.408       .  A
C441        C446   1.391       .  A
C441        H448   1.083       .  S
C442        C443   1.421       .  A
C443        C444   1.401       .  A
C443        N450   1.432       .  S
C444        C445   1.404       .  A
C444        H449   1.084       .  S
C445        C446   1.416       .  A
C446        N447   1.433       .  S
N447        H451   1.043       .  S
N447        H452   1.046       .  S
N450        H453   1.045       .  S
N450        H454   1.045       .  S
C455        C456   1.402       .  A
C455        C460   1.395       .  A
C455        H462   1.083       .  S
C456        C457   1.415       .  A
C457        C458   1.413       .  A
C457        N464   1.437       .  S
C458        C459   1.407       .  A
C458        H463   1.083       .  S
C459        C460   1.411       .  A
C460        N461   1.433       .  S
N461        H465   1.045       .  S
N461        H466   1.046       .  S
N464        H467   1.045       .  S
N464        H468   1.046       .  S
C469        C470   1.405       .  A
C469        C474   1.407       .  A
C469        H476   1.084       .  S
C470        C471   1.412       .  A
C471        C472   1.400       .  A
C471        N478   1.438       .  S
C472        C473   1.406       .  A
C472        H477   1.083       .  S
C473        C474   1.413       .  A
C474        N475   1.432       .  S
N475        H479   1.045       .  S
N475        H480   1.046       .  S
N478        H481   1.045       .  S
N478        H482   1.046       .  S
C483        C484   1.408       .  A
C483        C488   1.404       .  A
C483        H490   1.083       .  S
C484        C485   1.412       .  A
C485        C486   1.408       .  A
C485        N492   1.432       .  S
C486        C487   1.406       .  A
C486        H491   1.084       .  S
C487        C488   1.412       .  A
C488        N489   1.439       .  S
N489        H493   1.046       .  S
N489        H494   1.046       .  S
N492        H495   1.046       .  S
N492        H496   1.045       .  S
C497        C498   1.401       .  A
C497        C502   1.393       .  A
C497        H504   1.085       .  S
C498        C499   1.409       .  A
C499        C500   1.406       .  A
C499        N506   1.438       .  S
C500        C501   1.407       .  A
C500        H505   1.084       .  S
C501        C502   1.408       .  A
C502        N503   1.433       .  S
N503        H507   1.046       .  S
N503        H508   1.045       .  S
N506        H509   1.046       .  S
N506        H510   1.045       .  S
C511        C516   1.401       .  A
C511       C1190   1.406   1_554  A
C511        H518   1.083       .  S
C512        C513   1.411       .  A
C512       C1189   1.403       .  A
C513        C514   1.403       .  A
C513        N520   1.432       .  S
C514        C515   1.407       .  A
C514        H519   1.083       .  S
C515       C1194   1.415       .  A
C516       C1193   1.412   1_554  A
C516        N517   1.431       .  S
N517       H1199   1.046       .  S
N517       H1200   1.045       .  S
N520        H523   1.045       .  S
N520       H1202   1.046       .  S
H521       N1195   1.045       .  S
H522       N1195   1.046       .  S
H524       N1198   1.046       .  S
C525        C530   1.406       .  A
C525       C1204   1.405       .  A
C525        H532   1.084       .  S
C526        C527   1.411       .  A
C526       C1203   1.407       .  A
C527        C528   1.403       .  A
C527        N534   1.432       .  S
C528        C529   1.407       .  A
C528        H533   1.083       .  S
C529       C1208   1.413       .  A
C530       C1207   1.417       .  A
C530        N531   1.433       .  S
N531        H535   1.046       .  S
N531        H536   1.046       .  S
N534        H537   1.045       .  S
N534        H538   1.046       .  S
C539        C540   1.405       .  A
C539        C544   1.404       .  A
C539        H546   1.084       .  S
C540        C541   1.415       .  A
C541        C542   1.395       .  A
C541        N548   1.433       .  S
C542        C543   1.404       .  A
C542        H547   1.084       .  S
C543        C544   1.415       .  A
C544        N545   1.431       .  S
N545        H549   1.043       .  S
N545        H550   1.046       .  S
N548        H551   1.046       .  S
N548        H552   1.044       .  S
C553        C554   1.400       .  A
C553        C558   1.392       .  A
C553        H560   1.083       .  S
C554        C555   1.414       .  A
C555        C556   1.411       .  A
C555        N562   1.437       .  S
C556        C557   1.404       .  A
C556        H561   1.084       .  S
C557        C558   1.407       .  A
C558        N559   1.433       .  S
N559        H563   1.046       .  S
N559        H564   1.046       .  S
N562        H565   1.045       .  S
N562        H566   1.046       .  S
C567        C568   1.407       .  A
C567        C572   1.398       .  A
C567        H574   1.084       .  S
C568        C569   1.416       .  A
C569        C570   1.411       .  A
C569        N576   1.437       .  S
C570        C571   1.409       .  A
C570        H575   1.083       .  S
C571        C572   1.413       .  A
C572        N573   1.434       .  S
N573        H577   1.045       .  S
N573        H578   1.045       .  S
N576        H579   1.045       .  S
N576        H580   1.046       .  S
C581        C582   1.401       .  A
C581        C586   1.393       .  A
C581        H588   1.083       .  S
C582        C583   1.418       .  A
C583        C584   1.405       .  A
C583        N590   1.432       .  S
C584        C585   1.406       .  A
C584        H589   1.084       .  S
C585        C586   1.417       .  A
C586        N587   1.434       .  S
N587        H591   1.043       .  S
N587        H592   1.046       .  S
N590        H593   1.045       .  S
N590        H594   1.045       .  S
C595        C600   1.400       .  A
C595       C1274   1.407   1_554  A
C595        H602   1.084       .  S
C596        C597   1.414       .  A
C596       C1273   1.403       .  A
C597        C598   1.402       .  A
C597        N604   1.439       .  S
C598        C599   1.405       .  A
C598        H603   1.084       .  S
C599       C1278   1.415       .  A
C600       C1277   1.417   1_554  A
C600        N601   1.432       .  S
N601        H605   1.042       .  S
N601        H606   1.047       .  S
N604        H607   1.046       .  S
N604        H608   1.046       .  S
C609        C610   1.406       .  A
C609        C614   1.406       .  A
C609        H616   1.083       .  S
C610        C611   1.408       .  A
C611        C612   1.400       .  A
C611        N618   1.432   1_565  S
C612        C613   1.402       .  A
C612        H617   1.084   1_565  S
C613        C614   1.409       .  A
C614        N615   1.438       .  S
N615        H619   1.046       .  S
N615        H620   1.045       .  S
N618        H621   1.044       .  S
N618        H622   1.046       .  S
C623        C624   1.402       .  A
C623        C628   1.397       .  A
C623        H630   1.084   1_565  S
C624        C625   1.412       .  A
C625        C626   1.401       .  A
C625        N632   1.433       .  S
C626        C627   1.407       .  A
C626        H631   1.083       .  S
C627        C628   1.416       .  A
C628        N629   1.433       .  S
N629        H633   1.045   1_565  S
N629        H634   1.046       .  S
N632        H635   1.046       .  S
N632        H636   1.046       .  S
C637        C638   1.404       .  A
C637        C642   1.396       .  A
C637        H644   1.084       .  S
C638       C1317   1.417       .  A
C639        C640   1.402       .  A
C639       C1316   1.418       .  A
C639        N646   1.433       .  S
C640       C1319   1.410   1_554  A
C640        H645   1.084       .  S
C641        C642   1.417       .  A
C641       C1318   1.405       .  A
C642        N643   1.433       .  S
N643        H647   1.045       .  S
N643        H648   1.045       .  S
N646        H649   1.046       .  S
N646        H650   1.044       .  S
C651        C652   1.404       .  A
C651        C656   1.399       .  A
C651        H658   1.084       .  S
C652        C653   1.416       .  A
C653        C654   1.395       .  A
C653        N660   1.433       .  S
C654        C655   1.401       .  A
C654        H659   1.085       .  S
C655        C656   1.412       .  A
C656        N657   1.433       .  S
N657        H661   1.044       .  S
N657        H662   1.046       .  S
N660        H663   1.045       .  S
N660        H664   1.044       .  S
C665        C666   1.407       .  A
C665        C670   1.397       .  A
C665        H672   1.084       .  S
C666        C667   1.415       .  A
C667        C668   1.407       .  A
C667        N674   1.432       .  S
C668        C669   1.404       .  A
C668        H673   1.084       .  S
C669        C670   1.409       .  A
C670        N671   1.434       .  S
N671        H675   1.046       .  S
N671        H676   1.045       .  S
N674        H677   1.046       .  S
N674        H678   1.045       .  S
C679        N680   1.366       .  A
C679       C1319   1.496       .  S
N680        C681   1.362       .  A
C681       C1347   1.486       .  S
N682        C683   1.352       .  A
C683        N684   1.358       .  A
C683       C1330   1.477       .  S
C685        N690   1.361       .  A
C685       C1274   1.490       .  S
N686        C687   1.356       .  A
C687        N688   1.353       .  A
C687       C1288   1.476       .  S
C689        N690   1.362       .  A
C689       C1305   1.496       .  S
O691       Zr703   2.445       .  S
O691        C693   1.288       .  A
O692       Zr729   2.417       .  S
O692        C693   1.286   1_545  A
C693       C1302   1.488       .  S
O694       Zr706   2.437       .  S
O694        C696   1.286       .  A
O695       Zr730   2.427   1_565  S
O695        C696   1.288       .  A
C696       C1333   1.475       .  S
O697       Zr706   2.446       .  S
O697        C699   1.288       .  A
O698       Zr729   2.414   1_565  S
O698        C699   1.286       .  A
C699       C1344   1.494       .  S
O700       Zr703   2.431       .  S
O700        C702   1.284       .  A
O701       Zr730   2.410   1_565  S
O701        C702   1.284       .  A
C702       C1291   1.464       .  S
Zr703       O704   2.433       .  S
Zr703       O705   2.436   1_565  S
Zr703       O709   2.372       .  S
Zr703       O710   2.379       .  S
Zr703       O733   2.370   1_565  S
Zr703       O735   2.369   1_565  S
O704        H747   0.989       .  S
O705        H746   0.989   1_545  S
O705        H750   0.992       .  S
Zr706       O707   2.436       .  S
Zr706       O708   2.434       .  S
Zr706       O710   2.378       .  S
Zr706       O709   2.373       .  S
Zr706       O734   2.366   1_565  S
Zr706       O736   2.372   1_565  S
O707        H748   0.990       .  S
O707        H751   0.990       .  S
O708        H741   0.989       .  S
O709       Zr729   2.370   1_565  S
O710       Zr730   2.377   1_565  S
O710        H737   0.967       .  S
O711       Zr723   2.462       .  S
O711        C713   1.292       .  A
O712       Zr730   2.409       .  S
O712        C713   1.284       .  A
C713       C1249   1.495       .  S
O714       Zr726   2.449       .  S
O714        C716   1.288       .  A
O715       Zr729   2.401       .  S
O715        C716   1.284       .  A
C716       C1232   1.474       .  S
O717       Zr726   2.454       .  S
O717        C719   1.290       .  A
O718       Zr730   2.402       .  S
O718        C719   1.282       .  A
C719       C1218   1.477       .  S
O720       Zr723   2.458       .  S
O720        C722   1.290       .  A
O721       Zr729   2.403       .  S
O721        C722   1.284       .  A
C722       C1260   1.481       .  S
Zr723       O724   2.436       .  S
Zr723       O725   2.434       .  S
Zr723       O731   2.381       .  S
Zr723       O732   2.378       .  S
Zr723       O735   2.374       .  S
Zr723       O733   2.373       .  S
O724        H744   0.992       .  S
O724        H749   0.988       .  S
O725        H745   0.989       .  S
Zr726       O727   2.434       .  S
Zr726       O728   2.436       .  S
Zr726       O732   2.378       .  S
Zr726       O731   2.374       .  S
Zr726       O736   2.369       .  S
Zr726       O734   2.377       .  S
O727        H743   0.990       .  S
O728        H742   0.991       .  S
O728        H752   0.990       .  S
Zr729       O732   2.378       .  S
Zr729       O734   2.377       .  S
Zr729       O735   2.373       .  S
Zr730       O731   2.382       .  S
Zr730       O733   2.371       .  S
Zr730       O736   2.370       .  S
O731        H739   0.964       .  S
O734        H738   0.964       .  S
O735        H740   0.965       .  S
C753        N758   1.358       .  A
C753       C1204   1.489   1_556  S
N754        C755   1.357       .  A
C755        N756   1.355       .  A
C755       C1246   1.489       .  S
C757        N758   1.352       .  A
C757       C1263   1.475       .  S
C759        N760   1.353       .  A
C759        N764   1.353       .  A
C759       C1221   1.475       .  S
C761        N762   1.352       .  A
C761       C1235   1.471       .  S
N762        C763   1.359       .  A
C763       C1193   1.490       .  S
O765       Zr777   2.454       .  S
O765        C767   1.290       .  A
O766       Zr803   2.409       .  S
O766        C767   1.284       .  A
C767       C1148   1.481       .  S
O768       Zr780   2.442       .  S
O768        C770   1.288       .  A
O769       Zr804   2.411       .  S
O769        C770   1.284       .  A
C770       C1165   1.477       .  S
O771       Zr780   2.462       .  S
O771        C773   1.291       .  A
O772       Zr803   2.394       .  S
O772        C773   1.282       .  A
C773       C1176   1.477       .  S
O774       Zr777   2.452       .  S
O774        C776   1.289       .  A
O775       Zr804   2.415       .  S
O775        C776   1.285       .  A
C776       C1134   1.483       .  S
Zr777       O778   2.433       .  S
Zr777       O779   2.437       .  S
Zr777       O783   2.380       .  S
Zr777       O784   2.374       .  S
Zr777       O807   2.376       .  S
Zr777       O809   2.376       .  S
O778        H821   0.990       .  S
O779        H820   0.990       .  S
O779        H824   0.989       .  S
Zr780       O781   2.434       .  S
Zr780       O782   2.435       .  S
Zr780       O784   2.378       .  S
Zr780       O783   2.372       .  S
Zr780       O808   2.370       .  S
Zr780       O810   2.376       .  S
O781        H822   0.990       .  S
O781        H825   0.990       .  S
O782        H815   0.990       .  S
O783       Zr803   2.375       .  S
O784       Zr804   2.381       .  S
O784        H811   0.967       .  S
O785       Zr797   2.431       .  S
O785        C787   1.285       .  A
O786       Zr804   2.415   1_655  S
O786        C787   1.285       .  A
C787       C1109   1.469       .  S
O788       Zr800   2.457       .  S
O788        C790   1.290       .  A
O789       Zr803   2.409   1_655  S
O789        C790   1.284       .  A
C790       C1092   1.480       .  S
O791       Zr800   2.453       .  S
O791        C793   1.290       .  A
O792       Zr804   2.402   1_655  S
O792        C793   1.283       .  A
C793       C1078   1.480       .  S
O794       Zr797   2.435       .  S
O794        C796   1.284       .  A
O795       Zr803   2.399   1_655  S
O795        C796   1.283       .  A
C796       C1120   1.488       .  S
Zr797       O798   2.436       .  S
Zr797       O799   2.435       .  S
Zr797       O805   2.372       .  S
Zr797       O806   2.370       .  S
Zr797       O809   2.370   1_655  S
Zr797       O807   2.378   1_655  S
O798        H818   0.990       .  S
O798        H823   0.991       .  S
O799        H819   0.990       .  S
Zr800       O801   2.434       .  S
Zr800       O802   2.435       .  S
Zr800       O806   2.375       .  S
Zr800       O805   2.376       .  S
Zr800       O810   2.372   1_655  S
Zr800       O808   2.372   1_655  S
O801        H817   0.990       .  S
O802        H816   0.989       .  S
O802        H826   0.991       .  S
Zr803       O806   2.372   1_455  S
Zr803       O808   2.376       .  S
Zr803       O809   2.374       .  S
Zr804       O805   2.380   1_455  S
Zr804       O807   2.370       .  S
Zr804       O810   2.379       .  S
O805        H813   0.965       .  S
O808        H812   0.966       .  S
O809        H814   0.962       .  S
C827        N832   1.363   1_554  A
C827       C1064   1.494       .  S
N828        C829   1.361       .  A
C829        N830   1.353       .  A
C829       C1137   1.485       .  S
C831        N832   1.358       .  A
C831       C1151   1.487       .  S
C833        N834   1.354       .  A
C833        N838   1.354       .  A
C833       C1106   1.477       .  S
C835        N836   1.357       .  A
C835       C1123   1.481       .  S
N836        C837   1.359   1_556  A
C837       C1190   1.488   1_554  S
C839        N840   1.362   1_554  A
C839       C1053   1.491       .  S
N840        C841   1.356       .  A
C841       C1095   1.489       .  S
N842        C843   1.356       .  A
C843        N844   1.363       .  A
C843       C1081   1.493       .  S
C845        N846   1.360   1_554  A
C845       C1277   1.490   1_554  S
N846        C847   1.354       .  A
C847       C1179   1.480       .  S
N848        C849   1.355       .  A
C849        N850   1.358       .  A
C849       C1162   1.486       .  S
O851       Zr863   2.459       .  S
O851        C853   1.291       .  A
O852       Zr889   2.425       .  S
O852        C853   1.287       .  A
C853       C1011   1.488       .  S
O854       Zr866   2.465       .  S
O854        C856   1.292       .  A
O855       Zr890   2.411       .  S
O855        C856   1.283       .  A
C856       C1025   1.491       .  S
O857       Zr866   2.452       .  S
O857        C859   1.289       .  A
O858       Zr889   2.410       .  S
O858        C859   1.285       .  A
C859       C1036   1.480       .  S
O860       Zr863   2.454       .  S
O860        C862   1.290       .  A
O861       Zr890   2.412       .  S
O861        C862   1.286       .  A
C862        C994   1.480       .  S
Zr863       O864   2.433       .  S
Zr863       O865   2.435       .  S
Zr863       O869   2.375       .  S
Zr863       O870   2.375       .  S
Zr863       O893   2.382       .  S
Zr863       O895   2.376       .  S
O864        H907   0.989       .  S
O865        H906   0.988       .  S
O865        H910   0.993       .  S
Zr866       O867   2.436       .  S
Zr866       O868   2.433       .  S
Zr866       O870   2.362       .  S
Zr866       O869   2.374       .  S
Zr866       O894   2.381       .  S
Zr866       O896   2.380       .  S
O867        H908   0.990       .  S
O867        H911   0.990       .  S
O868        H901   0.988       .  S
O869       Zr889   2.375       .  S
O870       Zr890   2.380       .  S
O870        H897   0.964       .  S
O871       Zr883   2.444       .  S
O871        C873   1.287       .  A
O872       Zr890   2.415       .  S
O872        C873   1.286       .  A
C873        C969   1.477       .  S
O874       Zr886   2.448       .  S
O874        C876   1.288       .  A
O875       Zr889   2.412       .  S
O875        C876   1.285       .  A
C876        C952   1.479       .  S
O877       Zr886   2.443       .  S
O877        C879   1.288       .  A
O878       Zr890   2.428       .  S
O878        C879   1.288       .  A
C879        C938   1.485       .  S
O880       Zr883   2.442       .  S
O880        C882   1.287       .  A
O881       Zr889   2.411       .  S
O881        C882   1.286       .  A
C882        C983   1.480       .  S
Zr883       O884   2.437       .  S
Zr883       O885   2.435       .  S
Zr883       O891   2.378       .  S
Zr883       O892   2.372       .  S
Zr883       O895   2.378       .  S
Zr883       O893   2.376       .  S
O884        H904   0.991       .  S
O884        H909   0.990       .  S
O885        H905   0.989       .  S
Zr886       O887   2.438       .  S
Zr886       O888   2.435       .  S
Zr886       O892   2.368       .  S
Zr886       O891   2.368       .  S
Zr886       O896   2.380       .  S
Zr886       O894   2.376       .  S
O887        H903   0.991       .  S
O888        H902   0.989       .  S
O888        H912   0.991       .  S
Zr889       O892   2.371       .  S
Zr889       O894   2.383       .  S
Zr889       O895   2.380       .  S
Zr890       O891   2.374       .  S
Zr890       O893   2.381       .  S
Zr890       O896   2.378       .  S
O891        H899   0.969       .  S
O894        H898   0.966       .  S
O895        H900   0.969       .  S
C913        N918   1.365   1_554  A
C913       C1207   1.490       .  S
N914        C915   1.360       .  A
C915       C1039   1.483       .  S
N916        C917   1.355   1_554  A
C917        N918   1.360       .  A
C917       C1022   1.482       .  S
C919        N920   1.367   1_554  A
C919       C1067   1.495       .  S
N920        C921   1.363       .  A
C921        N922   1.354   1_556  A
C921        C941   1.492       .  S
C923        N924   1.358       .  A
C923        C955   1.481       .  S
C925        N930   1.362       .  A
C925       C1050   1.485       .  S
N926        C927   1.364       .  A
C927       C1008   1.501       .  S
N928        C929   1.351       .  A
C929        N930   1.358       .  A
C929        C997   1.487       .  S
C931        N936   1.364   1_554  A
C931       C1316   1.495       .  S
N932        C933   1.358       .  A
C933        C980   1.490       .  S
N934        C935   1.352       .  A
C935        N936   1.357       .  A
C935        C966   1.489       .  S
C937        C938   1.407       .  A
C937        C942   1.410       .  A
C937        H944   1.084       .  S
C938        C939   1.410       .  A
C939        C940   1.403       .  A
C939        N946   1.439       .  S
C940        C941   1.409       .  A
C940        H945   1.083       .  S
C941        C942   1.414       .  A
C942        N943   1.437       .  S
N943        H947   1.045       .  S
N943        H948   1.046       .  S
N946        H949   1.045       .  S
N946        H950   1.046       .  S
C951        C952   1.402       .  A
C951        C956   1.400       .  A
C951        H958   1.082       .  S
C952        C953   1.413       .  A
C953        C954   1.409       .  A
C953        N960   1.437       .  S
C954        C955   1.405       .  A
C954        H959   1.084       .  S
C955        C956   1.413       .  A
C956        N957   1.439       .  S
N957        H961   1.045       .  S
N957        H962   1.046       .  S
N960        H963   1.044       .  S
N960        H964   1.046       .  S
C965        C966   1.407       .  A
C965        C970   1.397       .  A
C965        H972   1.083       .  S
C966        C967   1.417       .  A
C967        C968   1.410       .  A
C967        N974   1.437       .  S
C968        C969   1.405       .  A
C968        H973   1.084       .  S
C969        C970   1.407       .  A
C970        N971   1.438       .  S
N971        H975   1.046       .  S
N971        H976   1.045       .  S
N974        H977   1.046       .  S
N974        H978   1.046       .  S
C979        C980   1.410       .  A
C979        C984   1.410       .  A
C979        H986   1.083       .  S
C980        C981   1.415       .  A
C981        C982   1.394       .  A
C981        N988   1.433       .  S
C982        C983   1.399       .  A
C982        H987   1.082       .  S
C983        C984   1.414       .  A
C984        N985   1.438       .  S
N985        H989   1.046       .  S
N985        H990   1.045       .  S
N988        H991   1.046       .  S
N988        H992   1.045       .  S
C993        C994   1.400       .  A
C993        C998   1.400       .  A
C993       H1000   1.081       .  S
C994        C995   1.413       .  A
C995        C996   1.409       .  A
C995       N1002   1.438       .  S
C996        C997   1.406       .  A
C996       H1001   1.083       .  S
C997        C998   1.417       .  A
C998        N999   1.439       .  S
N999       H1003   1.045       .  S
N999       H1004   1.046       .  S
N1002      H1005   1.045       .  S
N1002      H1006   1.046       .  S
C1007      C1008   1.411       .  A
C1007      C1012   1.405       .  A
C1007      H1014   1.082       .  S
C1008      C1009   1.417       .  A
C1009      C1010   1.413       .  A
C1009      N1016   1.437       .  S
C1010      C1011   1.405       .  A
C1010      H1015   1.084       .  S
C1011      C1012   1.409       .  A
C1012      N1013   1.438       .  S
N1013      H1017   1.046       .  S
N1013      H1018   1.046       .  S
N1016      H1019   1.046       .  S
N1016      H1020   1.045       .  S
C1021      C1022   1.401       .  A
C1021      C1026   1.397       .  A
C1021      H1028   1.084       .  S
C1022      C1023   1.414       .  A
C1023      C1024   1.405       .  A
C1023      N1030   1.432       .  S
C1024      C1025   1.408       .  A
C1024      H1029   1.084       .  S
C1025      C1026   1.422       .  A
C1026      N1027   1.433       .  S
N1027      H1031   1.044       .  S
N1027      H1032   1.045       .  S
N1030      H1033   1.046       .  S
N1030      H1034   1.044       .  S
C1035      C1036   1.401       .  A
C1035      C1040   1.394       .  A
C1035      H1042   1.083       .  S
C1036      C1037   1.412       .  A
C1037      C1038   1.410       .  A
C1037      N1044   1.437       .  S
C1038      C1039   1.407       .  A
C1038      H1043   1.084       .  S
C1039      C1040   1.417       .  A
C1040      N1041   1.434       .  S
N1041      H1045   1.046       .  S
N1041      H1046   1.044       .  S
N1044      H1047   1.046       .  S
N1044      H1048   1.045       .  S
C1049      C1054   1.404       .  A
C1049      H1056   1.084       .  S
C1050      C1051   1.417       .  A
C1051      C1052   1.398       .  A
C1051      N1058   1.432       .  S
C1052      C1053   1.406   1_556  A
C1052      H1057   1.084       .  S
C1054      N1055   1.429       .  S
N1055      H1059   1.046       .  S
N1055      H1060   1.041       .  S
N1058      H1061   1.044       .  S
N1058      H1062   1.045       .  S
C1063      C1068   1.410       .  A
C1063      H1070   1.083       .  S
C1064      C1065   1.416   1_554  A
C1065      C1066   1.405       .  A
C1065      N1072   1.432       .  S
C1066      C1067   1.406   1_556  A
C1066      H1071   1.083       .  S
C1068      N1069   1.438       .  S
N1069      H1073   1.046       .  S
N1069      H1074   1.046       .  S
N1072      H1075   1.045       .  S
N1072      H1076   1.046       .  S
C1077      C1078   1.402       .  A
C1077      C1082   1.403       .  A
C1077      H1084   1.084       .  S
C1078      C1079   1.410       .  A
C1079      C1080   1.401       .  A
C1079      N1086   1.434       .  S
C1080      C1081   1.409       .  A
C1080      H1085   1.084       .  S
C1081      C1082   1.413       .  A
C1082      N1083   1.428       .  S
N1083      H1087   1.046       .  S
N1083      H1088   1.046       .  S
N1086      H1089   1.046       .  S
N1086      H1090   1.046       .  S
C1091      C1092   1.404       .  A
C1091      C1096   1.412       .  A
C1091      H1098   1.084       .  S
C1092      C1093   1.408       .  A
C1093      C1094   1.397       .  A
C1093      N1100   1.433       .  S
C1094      C1095   1.405       .  A
C1094      H1099   1.084       .  S
C1095      C1096   1.418       .  A
C1096      N1097   1.437       .  S
N1097      H1101   1.045       .  S
N1097      H1102   1.046       .  S
N1100      H1103   1.046       .  S
N1100      H1104   1.045       .  S
C1105      C1106   1.408       .  A
C1105      C1110   1.406       .  A
C1105      H1112   1.083       .  S
C1106      C1107   1.408       .  A
C1107      C1108   1.396       .  A
C1107      N1114   1.432   1_655  S
C1108      C1109   1.399       .  A
C1108      H1113   1.081   1_655  S
C1109      C1110   1.410       .  A
C1110      N1111   1.438       .  S
N1111      H1115   1.046       .  S
N1111      H1116   1.045       .  S
N1114      H1117   1.046       .  S
N1114      H1118   1.045       .  S
C1119      C1120   1.405       .  A
C1119      C1124   1.390       .  A
C1119      H1126   1.083       .  S
C1120      C1121   1.421       .  A
C1121      C1122   1.399       .  A
C1121      N1128   1.432       .  S
C1122      C1123   1.404       .  A
C1122      H1127   1.084       .  S
C1123      C1124   1.417       .  A
C1124      N1125   1.433       .  S
N1125      H1129   1.043       .  S
N1125      H1130   1.045       .  S
N1128      H1131   1.045       .  S
N1128      H1132   1.045       .  S
C1133      C1134   1.401       .  A
C1133      C1138   1.398       .  A
C1133      H1140   1.081       .  S
C1134      C1135   1.414       .  A
C1135      C1136   1.412       .  A
C1135      N1142   1.437       .  S
C1136      C1137   1.405       .  A
C1136      H1141   1.083       .  S
C1137      C1138   1.412       .  A
C1138      N1139   1.433       .  S
N1139      H1143   1.046       .  S
N1139      H1144   1.045       .  S
N1142      H1145   1.046       .  S
N1142      H1146   1.045       .  S
C1147      C1148   1.405       .  A
C1147      C1152   1.408       .  A
C1147      H1154   1.084       .  S
C1148      C1149   1.413       .  A
C1149      C1150   1.399       .  A
C1149      N1156   1.439       .  S
C1150      C1151   1.405       .  A
C1150      H1155   1.082       .  S
C1151      C1152   1.412       .  A
C1152      N1153   1.431       .  S
N1153      H1157   1.046       .  S
N1153      H1158   1.045       .  S
N1156      H1159   1.046       .  S
N1156      H1160   1.045       .  S
C1161      C1162   1.407       .  A
C1161      C1166   1.403       .  A
C1161      H1168   1.083       .  S
C1162      C1163   1.413       .  A
C1163      C1164   1.401       .  A
C1163      N1170   1.432       .  S
C1164      C1165   1.402       .  A
C1164      H1169   1.084       .  S
C1165      C1166   1.412       .  A
C1166      N1167   1.439       .  S
N1167      H1171   1.046       .  S
N1167      H1172   1.046       .  S
N1170      H1173   1.045       .  S
N1170      H1174   1.046       .  S
C1175      C1176   1.404       .  A
C1175      C1180   1.396       .  A
C1175      H1182   1.085       .  S
C1176      C1177   1.411       .  A
C1177      C1178   1.409       .  A
C1177      N1184   1.437       .  S
C1178      C1179   1.407       .  A
C1178      H1183   1.083       .  S
C1179      C1180   1.409       .  A
C1180      N1181   1.433       .  S
N1181      H1185   1.046       .  S
N1181      H1186   1.045       .  S
N1184      H1187   1.046       .  S
N1184      H1188   1.046       .  S
C1189      C1194   1.396       .  A
C1189      H1196   1.083       .  S
C1190      C1191   1.414       .  A
C1191      C1192   1.401       .  A
C1191      N1198   1.433       .  S
C1192      C1193   1.408       .  A
C1192      H1197   1.083       .  S
C1194      N1195   1.433       .  S
N1198      H1201   1.046       .  S
C1203      C1208   1.403       .  A
C1203      H1210   1.083       .  S
C1204      C1205   1.416   1_554  A
C1205      C1206   1.401       .  A
C1205      N1212   1.433       .  S
C1206      C1207   1.403   1_556  A
C1206      H1211   1.083       .  S
C1208      N1209   1.432       .  S
N1209      H1213   1.045       .  S
N1209      H1214   1.046       .  S
N1212      H1215   1.046       .  S
N1212      H1216   1.045       .  S
C1217      C1218   1.405       .  A
C1217      C1222   1.402       .  A
C1217      H1224   1.084       .  S
C1218      C1219   1.416       .  A
C1219      C1220   1.393       .  A
C1219      N1226   1.433       .  S
C1220      C1221   1.402       .  A
C1220      H1225   1.084       .  S
C1221      C1222   1.414       .  A
C1222      N1223   1.432       .  S
N1223      H1227   1.044       .  S
N1223      H1228   1.046       .  S
N1226      H1229   1.045       .  S
N1226      H1230   1.043       .  S
C1231      C1232   1.400       .  A
C1231      C1236   1.391       .  A
C1231      H1238   1.078       .  S
C1232      C1233   1.412       .  A
C1233      C1234   1.410       .  A
C1233      N1240   1.437       .  S
C1234      C1235   1.405       .  A
C1234      H1239   1.084       .  S
C1235      C1236   1.405       .  A
C1236      N1237   1.433       .  S
N1237      H1241   1.045       .  S
N1237      H1242   1.046       .  S
N1240      H1243   1.046       .  S
N1240      H1244   1.045       .  S
C1245      C1246   1.402       .  A
C1245      C1250   1.397       .  A
C1245      H1252   1.084       .  S
C1246      C1247   1.416       .  A
C1247      C1248   1.412       .  A
C1247      N1254   1.438       .  S
C1248      C1249   1.409       .  A
C1248      H1253   1.083       .  S
C1249      C1250   1.417       .  A
C1250      N1251   1.433       .  S
N1251      H1255   1.045       .  S
N1251      H1256   1.045       .  S
N1254      H1257   1.046       .  S
N1254      H1258   1.045       .  S
C1259      C1260   1.402       .  A
C1259      C1264   1.391       .  A
C1259      H1266   1.078       .  S
C1260      C1261   1.414       .  A
C1261      C1262   1.404       .  A
C1261      N1268   1.432       .  S
C1262      C1263   1.406       .  A
C1262      H1267   1.084       .  S
C1263      C1264   1.412       .  A
C1264      N1265   1.434       .  S
N1265      H1269   1.044       .  S
N1265      H1270   1.046       .  S
N1268      H1271   1.046       .  S
N1268      H1272   1.045       .  S
C1273      C1278   1.395       .  A
C1273      H1280   1.084       .  S
C1274      C1275   1.412       .  A
C1275      C1276   1.402       .  A
C1275      N1282   1.432       .  S
C1276      C1277   1.408       .  A
C1276      H1281   1.084       .  S
C1278      N1279   1.432       .  S
N1279      H1283   1.043       .  S
N1279      H1284   1.046       .  S
N1282      H1285   1.047       .  S
N1282      H1286   1.045       .  S
C1287      C1288   1.406       .  A
C1287      C1292   1.402       .  A
C1287      H1294   1.083       .  S
C1288      C1289   1.413       .  A
C1289      C1290   1.400       .  A
C1289      N1296   1.438       .  S
C1290      C1291   1.399       .  A
C1290      H1295   1.083   1_565  S
C1291      C1292   1.407       .  A
C1292      N1293   1.438       .  S
N1293      H1297   1.045       .  S
N1293      H1298   1.045       .  S
N1296      H1299   1.046   1_565  S
N1296      H1300   1.045       .  S
C1301      C1302   1.404       .  A
C1301      C1306   1.403       .  A
C1301      H1308   1.084   1_565  S
C1302      C1303   1.415       .  A
C1303      C1304   1.407       .  A
C1303      N1310   1.438       .  S
C1304      C1305   1.407       .  A
C1304      H1309   1.082       .  S
C1305      C1306   1.416       .  A
C1306      N1307   1.432       .  S
N1307      H1311   1.046   1_565  S
N1307      H1312   1.045   1_565  S
N1310      H1313   1.046       .  S
N1310      H1314   1.045       .  S
C1315      C1316   1.408   1_556  A
C1315      C1320   1.400       .  A
C1315      H1322   1.083       .  S
C1317      C1318   1.398       .  A
C1317      N1324   1.433       .  S
C1318      H1323   1.084       .  S
C1319      C1320   1.417       .  A
C1320      N1321   1.432       .  S
N1321      H1325   1.045       .  S
N1321      H1326   1.045       .  S
N1324      H1327   1.046       .  S
N1324      H1328   1.044       .  S
C1329      C1330   1.405       .  A
C1329      C1334   1.403       .  A
C1329      H1336   1.084       .  S
C1330      C1331   1.416       .  A
C1331      C1332   1.395       .  A
C1331      N1338   1.433       .  S
C1332      C1333   1.399       .  A
C1332      H1337   1.084       .  S
C1333      C1334   1.416       .  A
C1334      N1335   1.433       .  S
N1335      H1339   1.045       .  S
N1335      H1340   1.045       .  S
N1338      H1341   1.046       .  S
N1338      H1342   1.042       .  S
C1343      C1344   1.405       .  A
C1343      C1348   1.396       .  A
C1343      H1350   1.084       .  S
C1344      C1345   1.420       .  A
C1345      C1346   1.413       .  A
C1345      N1352   1.438       .  S
C1346      C1347   1.404       .  A
C1346      H1351   1.083       .  S
C1347      C1348   1.412       .  A
C1348      N1349   1.434       .  S
N1349      H1353   1.046       .  S
N1349      H1354   1.046       .  S
N1352      H1355   1.046       .  S
N1352      H1356   1.045       .  S
