geometry optimzed in LAMMPS
_audit_creation_date              2020-12-01 
_audit_creation_method            'lammps2cif' 
_symmetry_space_group_name_H-M    'P1' 
_symmetry_Int_Tables_number       1 
_symmetry_cell_setting            triclinic 
loop_ 
_symmetry_equiv_pos_as_xyz 
  x,y,z 
_cell_length_a                    32.82258589 
_cell_length_b                    32.94851771990819 
_cell_length_c                    34.05362147047097 
_cell_angle_alpha                 91.44331931711457 
_cell_angle_beta                  89.37612795656437 
_cell_angle_gamma                 91.48150573382799 
loop_ 
_atom_site_label 
_atom_site_type_symbol 
_atom_site_fract_x 
_atom_site_fract_y 
_atom_site_fract_z 
_atom_site_charge 
C1          C  0.33496831  0.40283754  0.33683446     0.86000
C2          C  0.31188712  0.37771569  0.36857523    -0.54300
C3          C  0.33469029  0.35568772  0.39400951     0.08900
C4          C  0.38286991  0.36243683  0.38311211     0.19800
C5          C  0.36626167  0.43013945  0.36083307    -0.55000
C6          C  0.39218216  0.41087018  0.38568806     0.09000
C7          C  0.36192294  0.37187962  0.31471910    -0.54500
C8          C  0.38829589  0.35045323  0.33689537     0.09600
H9          H  0.27883538  0.37749896  0.37057246     0.14100
H10         H  0.40304433  0.34526630  0.40224915    -0.00200
H11         H  0.36685872  0.46298838  0.35904840     0.14400
H12         H  0.36126199  0.36852873  0.28292985     0.14200
C13         C  0.14468396  0.09404224  0.14276800     0.86000
C14         C  0.12004144  0.12365684  0.16823385    -0.54300
C15         C  0.09335202  0.14778969  0.14964029     0.08900
C16         C  0.09585622  0.13952391  0.10233000     0.19800
C17         C  0.11176214  0.06957699  0.11787846    -0.55000
C18         C  0.08553044  0.09149068  0.09543050     0.09000
C19         C  0.16701660  0.12063708  0.11242147    -0.54500
C20         C  0.14366185  0.14555408  0.09055742     0.09600
H21         H  0.12357992  0.12487846  0.19981482     0.14100
H22         H  0.07567425  0.15917692  0.08561112    -0.00200
H23         H  0.11017365  0.03660214  0.11733381     0.14400
H24         H  0.20001690  0.12056754  0.10947666     0.14200
O25         O  0.03609035  0.46947196  0.42728055    -0.80700
O26         O  0.46146459  0.47969220  0.07512199    -0.80700
O27         O  0.07878811  0.50292971  0.51108861    -0.80700
O28         O  0.42351320  0.42598861  0.45019962    -0.80600
O29         O  0.03772830  0.46537477  0.05036509    -0.80800
O30         O  0.44270375  0.46900831  0.40527764    -0.80700
O31         O  0.43656802  0.43029380  0.03484603    -0.80700
O32         O  0.07427097  0.51631900  0.45729388    -0.80700
C33         C  0.07128314  0.48660345  0.43336569     1.09000
C34         C  0.45066484  0.44266264  0.06829421     1.08900
C35         C  0.06853555  0.46396981  0.02908559     1.09100
C36         C  0.42188084  0.43621404  0.41461608     1.08900
O37         O  0.44621115  0.04113187  0.44715799    -0.80700
O38         O  0.02289701  0.04567458  0.08168380    -0.80700
O39         O  0.02926722  0.05585504  0.44490086    -0.80700
O40         O  0.40123452  0.50558565  0.03429189    -0.80700
O41         O  0.44915543  0.55387565  0.03651122    -0.80700
O42         O  0.50050417  0.02661406  0.38954418    -0.80700
O43         O  0.39526267  0.99870656  0.45950118    -0.80600
O44         O  0.05782426  0.06575907  0.02931673    -0.80700
Co45       Co  0.48373687  0.99803246  0.43460558     1.51500
Co46       Co  0.99887479  0.50937303  0.04379430     1.51700
Co47       Co  0.02318518  0.02535482  0.49809985     1.51600
Co48       Co  0.41561777  0.46530838  0.99344554     1.51500
O49         O  0.48573328  0.48271609  0.48948439    -1.42600
C50         C  0.40883681  0.03431924  0.45228042     1.09800
C51         C  0.05323889  0.06785738  0.06750797     1.09000
C52         C  0.02163074  0.05353290  0.40728122     1.09000
C53         C  0.41075652  0.03709260  0.04650519     1.09000
O54         O  0.31130097  0.29051705  0.42878277    -0.80700
O55         O  0.23963818  0.22081792  0.08942572    -0.80700
O56         O  0.29095275  0.30288570  0.03170780    -0.80700
O57         O  0.26415365  0.15207675  0.49009480    -0.80600
O58         O  0.24216818  0.30266633  0.07689384    -0.80800
O59         O  0.30354005  0.19842352  0.45976954    -0.80700
O60         O  0.28087707  0.20606883  0.04059332    -0.80700
O61         O  0.28523852  0.34734684  0.45111705    -0.80700
C62         C  0.31072885  0.33010755  0.42714548     1.09000
C63         C  0.27465328  0.21110659  0.07697299     1.08900
C64         C  0.27791422  0.31300180  0.06599333     1.09100
C65         C  0.29549878  0.16120907  0.47009949     1.08900
O66         O  0.24199416  0.20907476  0.41757717    -0.80700
O67         O  0.16682074  0.29893493  0.03999704    -0.80700
O68         O  0.20875601  0.30908296  0.44158613    -0.80700
O69         O  0.20031234  0.16415630  0.04446670    -0.80700
O70         O  0.15777283  0.21284188  0.05961337    -0.80700
O71         O  0.23705720  0.26276103  0.40605216    -0.80700
O72         O  0.19739754  0.18285315  0.45885589    -0.80600
O73         O  0.21529887  0.34585060  0.51019978    -0.80700
Co74       Co  0.26727161  0.24836978  0.45356106     1.51500
Co75       Co  0.20232541  0.25818763  0.06238964     1.51700
Co76       Co  0.25110280  0.30637644  0.48222739     1.51600
Co77       Co  0.23700064  0.19375690  0.00279477     1.51500
O78         O  0.22383016  0.25589529  0.50116992    -1.42600
C79         C  0.21256060  0.18470441  0.42431609     1.09000
C80         C  0.17995939  0.33417574  0.02989615     1.09000
C81         C  0.20963016  0.28829624  0.41027401     1.09000
C82         C  0.16711076  0.17542890  0.06210430     1.09000
O83         O  0.03924479  0.29257460  0.31367823    -0.80700
O84         O  0.49297608  0.28594034  0.17321279    -0.80700
O85         O  0.07060003  0.27239166  0.21947746    -0.80700
O86         O  0.40835425  0.30121656  0.28352160    -0.80600
O87         O  0.03606624  0.27008525  0.16650560    -0.80800
O88         O  0.45539065  0.31726151  0.32755959    -0.80700
O89         O  0.45331231  0.32081580  0.21467212    -0.80700
O90         O  0.07655085  0.24323989  0.28494518    -0.80700
C91         C  0.07311019  0.27460275  0.30811582     1.09000
C92         C  0.47207550  0.31801863  0.18213002     1.08900
C93         C  0.06576568  0.28455966  0.18565275     1.09100
C94         C  0.41895826  0.32108813  0.31530773     1.08900
O95         O  0.43637937  0.23198825  0.32454626    -0.80700
O96         O  0.03169380  0.18920506  0.16768940    -0.80700
O97         O  0.01657617  0.17747954  0.26521762    -0.80700
O98         O  0.39731298  0.26001316  0.20740054    -0.80700
O99         O  0.44706127  0.22368551  0.17903670    -0.80700
O100        O  0.51845015  0.21526735  0.32487347    -0.80700
O101        O  0.42936379  0.21574271  0.26231894    -0.80600
O102        O  0.08091228  0.18985407  0.21060793    -0.80700
Co103      Co  0.48843857  0.26576047  0.32015946     1.51500
Co104      Co  0.99590744  0.23433817  0.19527789     1.51700
Co105      Co  0.04077965  0.22540732  0.23959044     1.51600
Co106      Co  0.44193149  0.26955030  0.24044106     1.51500
O107        O  0.49530021  0.26995462  0.25968760    -1.42600
C108        C  0.42058220  0.20966769  0.29771610     1.09000
C109        C  0.06762824  0.17745503  0.17665644     1.09000
C110        C  0.01868662  0.17986047  0.30216789     1.09000
C111        C  0.40927207  0.23474346  0.18092509     1.09000
O112        O  0.31002328  0.46592384  0.30589713    -0.80700
O113        O  0.24824570  0.02826711  0.14135465    -0.80700
O114        O  0.29162073  0.44258555  0.21331218    -0.80700
O115        O  0.27460865  0.10194099  0.23747168    -0.80600
O116        O  0.25318506  0.44594096  0.16086847    -0.80800
O117        O  0.30131724  0.05122753  0.27178470    -0.80700
O118        O  0.28889171  0.04094584  0.18978945    -0.80700
O119        O  0.27769489  0.40901192  0.28706421    -0.80700
C120        C  0.30605546  0.42685898  0.30862513     1.09000
C121        C  0.28268391  0.04084293  0.15383103     1.08900
C122        C  0.28437416  0.43314038  0.17756628     1.09100
C123        C  0.30054323  0.08960410  0.26168350     1.08900
O124        O  0.24100314  0.03178512  0.30625599    -0.80700
O125        O  0.17165147  0.44967720  0.18826678    -0.80700
O126        O  0.19819050  0.44436934  0.29011157    -0.80700
O127        O  0.20679607  0.08222584  0.18501834    -0.80700
O128        O  0.16604844  0.03029440  0.17035815    -0.80700
O129        O  0.23359407  0.49074777  0.31922538    -0.80700
O130        O  0.20640777  0.07168616  0.26779580    -0.80600
O131        O  0.21066214  0.40688885  0.22036800    -0.80700
Co132      Co  0.26931654  0.99375883  0.26663387     1.51500
Co133      Co  0.21336859  0.48937196  0.17016513     1.51700
Co134      Co  0.24539181  0.44733677  0.25222398     1.51600
Co135      Co  0.24445015  0.05481422  0.22645765     1.51500
O136        O  0.22503041  0.50011444  0.22857126    -1.42600
C137        C  0.21922058  0.06347173  0.30151799     1.09000
C138        C  0.17833280  0.41463256  0.20107086     1.09000
C139        C  0.20256820  0.46643459  0.32026054     1.09000
C140        C  0.17415299  0.06780896  0.16783713     1.09000
C141        C  0.34870855  0.19113761  0.29431079    -0.12800
C142        C  0.38740401  0.17964768  0.30520098     0.04200
C143        C  0.39440333  0.13786679  0.30854798    -0.08100
C144        C  0.36643277  0.10877160  0.29358064    -0.08800
C145        C  0.32915005  0.12047898  0.27906767    -0.03400
C146        C  0.31940587  0.16211098  0.28215854     0.03400
N147        N  0.27929293  0.17544362  0.27533383     0.65900
H148        H  0.34189618  0.22308939  0.29316597     0.14800
H149        H  0.37399540  0.07695659  0.29345409     0.14600
N150        N  0.43119826  0.12383299  0.32353818     0.73700
O151        O  0.25210898  0.16742457  0.30053351    -0.39800
O152        O  0.27446103  0.20483320  0.25302681    -0.39700
O153        O  0.43003917  0.10645019  0.35614354    -0.40400
O154        O  0.45677677  0.11249772  0.29832891    -0.40500
C155        C  0.07821558  0.35656222  0.18269107    -0.12800
C156        C  0.09218264  0.31809047  0.17278072     0.04200
C157        C  0.13447506  0.31273720  0.16809700    -0.08100
C158        C  0.16195592  0.34497661  0.17600710    -0.08800
C159        C  0.14813229  0.38208291  0.19090298    -0.03400
C160        C  0.10554085  0.38798466  0.19344929     0.03400
N161        N  0.08899126  0.42304425  0.21233142     0.65900
H162        H  0.04591085  0.36069741  0.18787234     0.14800
H163        H  0.19428451  0.34035162  0.17211456     0.14600
N164        N  0.15046855  0.27403431  0.15825879     0.73700
O165        O  0.07714801  0.45113804  0.19110101    -0.39800
O166        O  0.07228952  0.41873147  0.24556958    -0.39700
O167        O  0.16140092  0.26732430  0.12318247    -0.40400
O168        O  0.16686612  0.25454245  0.18501820    -0.40500
C169        C  0.31700517  0.41056266  0.11476704    -0.12800
C170        C  0.30744387  0.40206434  0.15440366     0.04200
C171        C  0.30238003  0.36071625  0.16407488    -0.08100
C172        C  0.29810237  0.33082384  0.13424936    -0.08800
C173        C  0.30094901  0.34019727  0.09446445    -0.03400
C174        C  0.31421422  0.37977896  0.08501313     0.03400
N175        N  0.32084303  0.38957324  0.04491105     0.65900
H176        H  0.32190091  0.44183252  0.10626484     0.14800
H177        H  0.28907438  0.30033351  0.14225157     0.14600
N178        N  0.29712635  0.34823359  0.20364458     0.73700
O179        O  0.35091011  0.37438067  0.02708695    -0.39800
O180        O  0.29110826  0.40064355  0.02508028    -0.39700
O181        O  0.26167906  0.33847329  0.21527502    -0.40400
O182        O  0.32686824  0.33165933  0.21936980    -0.40500
C183        C  0.17747053  0.11185743  0.34157672    -0.12800
C184        C  0.21436166  0.09172214  0.33504052     0.04200
C185        C  0.24876924  0.10283062  0.35818540    -0.08100
C186        C  0.24551706  0.13466144  0.38487678    -0.08800
C187        C  0.20839661  0.15211968  0.39445922    -0.03400
C188        C  0.17380640  0.14100134  0.37238106     0.03400
N189        N  0.13499263  0.15732843  0.38149783     0.65900
H190        H  0.15123044  0.10378517  0.32378348     0.14800
H191        H  0.27266741  0.14510522  0.39934625     0.14600
N192        N  0.28775646  0.08353610  0.35537766     0.73700
O193        O  0.11432465  0.17178045  0.35437721    -0.39800
O194        O  0.11705864  0.14619173  0.41248922    -0.39700
O195        O  0.31972302  0.10450758  0.36234828    -0.40400
O196        O  0.28959035  0.04572802  0.35946899    -0.40500
C197        C  0.13782922  0.29742717  0.39700854    -0.12800
C198        C  0.17665437  0.29102148  0.38184661     0.04200
C199        C  0.18198974  0.28423972  0.34125432    -0.08100
C200        C  0.14786379  0.28159042  0.31674452    -0.08800
C201        C  0.10842825  0.28655758  0.33241463    -0.03400
C202        C  0.10400782  0.29616026  0.37295017     0.03400
N203        N  0.06573224  0.30362171  0.39142236     0.65900
H204        H  0.13330892  0.30239221  0.42831888     0.14800
H205        H  0.15206727  0.27443153  0.28570690     0.14600
N206        N  0.22152155  0.27738339  0.32525169     0.73700
O207        O  0.04836471  0.27471648  0.40920308    -0.39800
O208        O  0.05996864  0.33932803  0.40412858    -0.39700
O209        O  0.25054845  0.30195117  0.33328886    -0.40400
O210        O  0.22941062  0.24213762  0.31297249    -0.40500
C211        C  0.34888244  0.20414209  0.08907908    -0.12800
C212        C  0.30913813  0.20761110  0.10449971     0.04200
C213        C  0.30416611  0.21067052  0.14563617    -0.08100
C214        C  0.33809868  0.21549304  0.16949808    -0.08800
C215        C  0.37765767  0.21738919  0.15392094    -0.03400
C216        C  0.38330895  0.20773162  0.11339062     0.03400
N217        N  0.42272687  0.20072680  0.09631228     0.65900
H218        H  0.35330445  0.19912816  0.05784795     0.14800
H219        H  0.33319478  0.21974017  0.20077407     0.14600
N220        N  0.26511584  0.21040876  0.16430703     0.73700
O221        O  0.44571294  0.17605527  0.11232494    -0.39800
O222        O  0.42928414  0.20892823  0.06072923    -0.39700
O223        O  0.25004313  0.17673531  0.17482571    -0.40400
O224        O  0.25424682  0.24230889  0.18237097    -0.40500
C225        C  0.33997136  0.05921126  0.44270406    -0.12800
C226        C  0.38097663  0.06819697  0.45014801     0.04200
C227        C  0.39361242  0.10874789  0.45899951    -0.08100
C228        C  0.36474677  0.13861722  0.46246899    -0.08800
C229        C  0.32331767  0.12883274  0.45961975    -0.03400
C230        C  0.31014636  0.08816457  0.44938672     0.03400
N231        N  0.26797874  0.07366783  0.45058434     0.65900
H232        H  0.33060389  0.02812689  0.43552585     0.14800
H233        H  0.37482343  0.16949817  0.46979495     0.14600
N234        N  0.43539294  0.12061687  0.46452981     0.73700
O235        O  0.25755387  0.04319173  0.42954956    -0.39800
O236        O  0.24565466  0.08126858  0.48005499    -0.39700
O237        O  0.45728345  0.12630733  0.43443072    -0.40400
O238        O  0.44569838  0.13813098  0.49642936    -0.40500
C239        C  0.11340618  0.36840908  0.51106142    -0.12800
C240        C  0.15174209  0.36760704  0.03282828     0.04200
C241        C  0.16303848  0.40695926  0.04690299    -0.08100
C242        C  0.13499927  0.43801278  0.04635184    -0.08800
C243        C  0.09616472  0.43046466  0.03153610    -0.03400
C244        C  0.08648505  0.40025863  0.51236158     0.03400
N245        N  0.04683204  0.39304279  0.49667966     0.65900
H246        H  0.10400209  0.33961183  0.49747760     0.14800
H247        H  0.14384593  0.46827807  0.05685109     0.14600
N248        N  0.20244011  0.41635522  0.06200623     0.73700
O249        O  0.04147874  0.39949264  0.46084878    -0.39800
O250        O  0.02434610  0.35391615  0.02434373    -0.39700
O251        O  0.22463565  0.44154395  0.04374942    -0.40400
O252        O  0.20742097  0.41314408  0.09843301    -0.40500
C253        C  0.10602119  0.44567460  0.38239093    -0.12800
C254        C  0.10875343  0.47613441  0.41099299     0.04200
C255        C  0.14607590  0.49935093  0.41409950    -0.08100
C256        C  0.17585121  0.49590472  0.38421418    -0.08800
C257        C  0.17181862  0.46681826  0.35357920    -0.03400
C258        C  0.13764059  0.43952369  0.35529589     0.03400
N259        N  0.13669151  0.40187015  0.33427372     0.65900
H260        H  0.07945843  0.42548667  0.38156686     0.14800
H261        H  0.20299016  0.51515748  0.38578519     0.14600
N262        N  0.14683004  0.02483718  0.43683507     0.73700
O263        O  0.15526381  0.37336302  0.34955110    -0.39800
O264        O  0.10574245  0.39302527  0.31387245    -0.39700
O265        O  0.16120315  0.50543698  0.48033382    -0.40400
O266        O  0.14447283  0.06191998  0.42902014    -0.40500
C267        C  0.30634124  0.05147556  0.08652103    -0.12800
C268        C  0.31535088  0.05429901  0.12615511     0.04200
C269        C  0.35568197  0.06651945  0.13695437    -0.08100
C270        C  0.38671084  0.06858948  0.10817546    -0.08800
C271        C  0.37850223  0.05811929  0.06897118    -0.03400
C272        C  0.34140972  0.56016647  0.06132555     0.03400
N273        N  0.32721517  0.55969022  0.02212563     0.65900
H274        H  0.28037941  0.55162929  0.08177265     0.14800
H275        H  0.41797383  0.07361330  0.11739353     0.14600
N276        N  0.36643209  0.07644679  0.17654187     0.73700
O277        O  0.31884636  0.52566808  0.00599929    -0.39800
O278        O  0.30646682  0.58945890  0.01280339    -0.39700
O279        O  0.38429627  0.05022264  0.19597492    -0.40400
O280        O  0.37228625  0.11348133  0.18569464    -0.40500
C281        C  0.47713345  0.39160443  0.16422297    -0.12800
C282        C  0.46850837  0.35072238  0.15357098     0.04200
C283        C  0.45305088  0.34172740  0.11589517    -0.08100
C284        C  0.44658107  0.37231012  0.08980561    -0.08800
C285        C  0.45581196  0.41269608  0.09937749    -0.03400
C286        C  0.47146053  0.42258948  0.13711725     0.03400
N287        N  0.48121648  0.46377254  0.14815204     0.65900
H288        H  0.48855102  0.39935644  0.19328555     0.14800
H289        H  0.95879810  0.35908691  0.05411450     0.14600
N290        N  0.96177089  0.29410773  0.09241117     0.73700
O291        O  0.51544937  0.47868788  0.13809835    -0.39800
O292        O  0.45240818  0.48746198  0.15564169    -0.39700
O293        O  0.92937284  0.28047234  0.07690967    -0.40400
O294        O  0.99544506  0.28143732  0.07941026    -0.40500
C295        C  0.04726002  0.07995613  0.34401009    -0.12800
C296        C  0.03288763  0.08707489  0.38279853     0.04200
C297        C  0.55451017  0.12420868  0.38670649    -0.08100
C298        C  0.55426093  0.15549223  0.36064208    -0.08800
C299        C  0.02480954  0.14618512  0.32740580    -0.03400
C300        C  0.04337456  0.11011298  0.31603950     0.03400
N301        N  0.05798166  0.10455151  0.27677931     0.65900
H302        H  0.05886112  0.05056767  0.33516375     0.14800
H303        H  0.56125661  0.18587369  0.37196633     0.14600
N304        N  0.56730387  0.13362899  0.42593906     0.73700
O305        O  0.03295352  0.09275931  0.25077768    -0.39800
O306        O  0.08925037  0.12482293  0.26648356    -0.39700
O307        O  0.60474337  0.14106685  0.43146116    -0.40400
O308        O  0.54199727  0.14947261  0.44946562    -0.40500
C309        C  0.32680652  0.39725953  0.83815944     0.86000
C310        C  0.30492656  0.37122754  0.86974358    -0.54300
C311        C  0.32899516  0.34809046  0.89291589     0.08900
C312        C  0.37634812  0.35429777  0.88110495     0.19800
C313        C  0.35938601  0.42275203  0.86230136    -0.55000
C314        C  0.38573187  0.40213076  0.88578949     0.09000
C315        C  0.35277186  0.36649484  0.81402270    -0.54500
C316        C  0.37985867  0.34393395  0.83452081     0.09600
H317        H  0.27213685  0.37167308  0.87393420     0.14100
H318        H  0.39681160  0.33607521  0.89900350    -0.00200
H319        H  0.36081978  0.45533985  0.86139090     0.14400
H320        H  0.35099836  0.36421018  0.78225010     0.14200
C321        C  0.14486231  0.09793701  0.64409239     0.86000
C322        C  0.11892118  0.12730782  0.66935227    -0.54300
C323        C  0.09211076  0.15153392  0.65044372     0.08900
C324        C  0.09578806  0.14309902  0.60285930     0.19800
C325        C  0.11282439  0.07333022  0.61859244    -0.55000
C326        C  0.08676176  0.09453014  0.59553494     0.09000
C327        C  0.16717070  0.12558673  0.61377357    -0.54500
C328        C  0.14374295  0.15053478  0.59137624     0.09600
H329        H  0.12136161  0.12806743  0.70114232     0.14100
H330        H  0.07531338  0.16218230  0.58585535    -0.00200
H331        H  0.11186955  0.04034955  0.61787544     0.14400
H332        H  0.20015176  0.12576767  0.61091365     0.14200
O333        O  0.02552151  0.46247640  0.92508372    -0.80700
O334        O  0.47510849  0.46731182  0.57593870    -0.80700
O335        O  0.07260949  0.49104887  0.00347753    -0.80700
O336        O  0.41657874  0.41934287  0.95135093    -0.80600
O337        O  0.03847422  0.46944537  0.54879501    -0.80800
O338        O  0.43859612  0.45704061  0.90271013    -0.80700
O339        O  0.44743892  0.42403841  0.53012373    -0.80700
O340        O  0.06788182  0.49865759  0.96387446    -0.80700
C341        C  0.06169380  0.47378395  0.93373900     1.09000
C342        C  0.45991060  0.43222837  0.56509562     1.08900
C343        C  0.07147686  0.47199328  0.53064934     1.09100
C344        C  0.41626534  0.42643197  0.91446999     1.08900
O345        O  0.44099393  0.04228912  0.94782768    -0.80700
O346        O  0.02970876  0.04217720  0.58081636    -0.80700
O347        O  0.02890284  0.05523454  0.94642087    -0.80700
O348        O  0.41578526  0.49559409  0.54502930    -0.80700
O349        O  0.45513656  0.54884337  0.54604608    -0.80700
O350        O  0.49450444  0.02766713  0.89143160    -0.80700
O351        O  0.38934745  0.00099391  0.95851592    -0.80600
O352        O  0.05931179  0.06893639  0.52856984    -0.80700
Co353      Co  0.48049478  0.00032483  0.93660524     1.51500
Co354      Co  0.99876836  0.51285356  0.54584158     1.51700
Co355      Co  0.01872750  0.02535533  0.99911439     1.51600
Co356      Co  0.42604393  0.46588976  0.49677744     1.51500
O357        O  0.47607563  0.48200669  0.98717222    -1.42600
C358        C  0.40329407  0.03553437  0.94885832     1.09800
C359        C  0.05628666  0.06881733  0.56696035     1.09000
C360        C  0.02247447  0.05264511  0.90874035     1.09000
C361        C  0.41370681  0.02829483  0.55100291     1.09000
O362        O  0.30473709  0.28223843  0.92230471    -0.80700
O363        O  0.23899222  0.22718510  0.58685707    -0.80700
O364        O  0.29052443  0.30928728  0.52710123    -0.80700
O365        O  0.26588282  0.14774064  0.98625938    -0.80600
O366        O  0.24070695  0.30812885  0.57166035    -0.80800
O367        O  0.29515274  0.20032904  0.95431711    -0.80700
O368        O  0.28077654  0.21273065  0.53882820    -0.80700
O369        O  0.28739996  0.33867957  0.95450423    -0.80700
C370        C  0.30775910  0.32169697  0.92551466     1.09000
C371        C  0.27365801  0.21560646  0.57504234     1.08900
C372        C  0.27716908  0.31664224  0.56194177     1.09100
C373        C  0.29323604  0.16222444  0.96311189     1.08900
O374        O  0.23080536  0.21635096  0.92054283    -0.80700
O375        O  0.16596483  0.30416366  0.53449163    -0.80700
O376        O  0.20842104  0.30927589  0.94780182    -0.80700
O377        O  0.20009180  0.17012080  0.54370246    -0.80700
O378        O  0.15685150  0.21787073  0.55718006    -0.80700
O379        O  0.22779852  0.25716316  0.91450324    -0.80700
O380        O  0.19584780  0.17925376  0.96342032    -0.80600
O381        O  0.21605058  0.34099637  0.01634576    -0.80700
Co382      Co  0.26440295  0.25452358  0.96079574     1.51500
Co383      Co  0.20172293  0.26376811  0.55796705     1.51700
Co384      Co  0.25057483  0.30053225  0.98740178     1.51600
Co385      Co  0.23709793  0.19951166  0.50106960     1.51500
O386        O  0.22044560  0.24839368  0.00538368    -1.42600
C387        C  0.20476492  0.18675189  0.92805201     1.09000
C388        C  0.17930662  0.33924717  0.52384448     1.09000
C389        C  0.20537670  0.28780379  0.91728778     1.09000
C390        C  0.16678714  0.18075219  0.56150562     1.09000
O391        O  0.03645044  0.29600654  0.82185245    -0.80700
O392        O  0.48249159  0.27703241  0.66859432    -0.80700
O393        O  0.07032391  0.27706105  0.72492161    -0.80700
O394        O  0.39932702  0.29096307  0.78313350    -0.80600
O395        O  0.02888782  0.27373283  0.67700540    -0.80800
O396        O  0.44859182  0.31676254  0.82052106    -0.80700
O397        O  0.43540036  0.30562363  0.70763321    -0.80700
O398        O  0.07464390  0.24753002  0.79262324    -0.80700
C399        C  0.06987763  0.27768279  0.81724270     1.09000
C400        C  0.45595760  0.30472148  0.67577366     1.08900
C401        C  0.06159745  0.28865031  0.69177658     1.09100
C402        C  0.41074750  0.31549808  0.81178978     1.08900
O403        O  0.43339017  0.23183516  0.82601054    -0.80700
O404        O  0.02878303  0.19310286  0.66812171    -0.80700
O405        O  0.01646367  0.18230079  0.77180774    -0.80700
O406        O  0.38726844  0.23939798  0.71306991    -0.80700
O407        O  0.44077627  0.21435784  0.67914861    -0.80700
O408        O  0.51549767  0.21806190  0.82050414    -0.80700
O409        O  0.42964795  0.20507349  0.76746417    -0.80600
O410        O  0.07743377  0.19338454  0.71247277    -0.80700
Co411      Co  0.48372778  0.26699137  0.81529642     1.51500
Co412      Co  0.00038608  0.23038867  0.71019142     1.51700
Co413      Co  0.03950810  0.23095987  0.74584427     1.51600
Co414      Co  0.43294023  0.25739277  0.74011438     1.51500
O415        O  0.48732886  0.26702864  0.75449210    -1.42600
C416        C  0.42014129  0.20389358  0.80312289     1.09000
C417        C  0.06488761  0.18106216  0.67751171     1.09000
C418        C  0.02042711  0.18269431  0.80871403     1.09000
C419        C  0.40152515  0.21850014  0.68428720     1.09000
O420        O  0.29736466  0.46295066  0.81465115    -0.80700
O421        O  0.24962333  0.02411681  0.64927921    -0.80700
O422        O  0.28710761  0.44188481  0.71331207    -0.80700
O423        O  0.26704632  0.10326598  0.75026149    -0.80600
O424        O  0.24799552  0.44633384  0.66168533    -0.80800
O425        O  0.29564886  0.05329310  0.78304800    -0.80700
O426        O  0.28680151  0.04207507  0.69980123    -0.80700
O427        O  0.27173500  0.40663353  0.78623250    -0.80700
C428        C  0.29690779  0.42339932  0.81193538     1.09000
C429        C  0.28396064  0.03477778  0.66359887     1.08900
C430        C  0.27901991  0.43213251  0.67780276     1.09100
C431        C  0.29364445  0.09127784  0.77423750     1.08900
O432        O  0.22865540  0.04377028  0.81769639    -0.80700
O433        O  0.16621251  0.45413931  0.68948035    -0.80700
O434        O  0.19225553  0.44133530  0.78766985    -0.80700
O435        O  0.20576041  0.08334879  0.68848915    -0.80700
O436        O  0.16506868  0.03230456  0.67167306    -0.80700
O437        O  0.22011161  0.48959547  0.82186540    -0.80700
O438        O  0.19377206  0.07014059  0.77066750    -0.80600
O439        O  0.20472546  0.40841857  0.71782446    -0.80700
Co440      Co  0.25541117  0.00455804  0.78322996     1.51500
Co441      Co  0.20934003  0.49174933  0.67203388     1.51700
Co442      Co  0.24046389  0.44642975  0.75177269     1.51600
Co443      Co  0.23846391  0.05466873  0.73329210     1.51500
O444        O  0.22044469  0.50096814  0.73073233    -1.42600
C445        C  0.20148250  0.06732375  0.80710558     1.09000
C446        C  0.17234704  0.41813931  0.69928380     1.09000
C447        C  0.19179083  0.46272085  0.81845958     1.09000
C448        C  0.17376861  0.07001010  0.66960529     1.09000
C449        C  0.34789708  0.18835009  0.80985149    -0.12800
C450        C  0.38737518  0.17477451  0.81433248     0.04200
C451        C  0.39334500  0.13243129  0.81456556    -0.08100
C452        C  0.36237872  0.10577445  0.80087691    -0.08800
C453        C  0.32411799  0.12015931  0.79138262    -0.03400
C454        C  0.31592821  0.16120021  0.80045811     0.03400
N455        N  0.27565209  0.17447470  0.80762765     0.65900
H456        H  0.34198025  0.22050874  0.81272237     0.14800
H457        H  0.36780835  0.07345223  0.79887406     0.14600
N458        N  0.42677837  0.11599183  0.83489651     0.73700
O459        O  0.26309412  0.17269176  0.84266117    -0.39800
O460        O  0.26214386  0.20182309  0.78641904    -0.39700
O461        O  0.43511353  0.13041759  0.86862622    -0.40400
O462        O  0.43777256  0.08044273  0.82608924    -0.40500
C463        C  0.07199125  0.36054985  0.68079903    -0.12800
C464        C  0.08647595  0.32142599  0.67515768     0.04200
C465        C  0.12864642  0.31638886  0.66864418    -0.08100
C466        C  0.15568192  0.34913707  0.67465559    -0.08800
C467        C  0.14172085  0.38696165  0.68678126    -0.03400
C468        C  0.09912233  0.39372734  0.68536302     0.03400
N469        N  0.08253134  0.43343289  0.68663888     0.65900
H470        H  0.03966837  0.36508829  0.68451987     0.14800
H471        H  0.18787572  0.34459837  0.67086729     0.14600
N472        N  0.14536837  0.27782127  0.65905265     0.73700
O473        O  0.08309197  0.45286011  0.65517068    -0.39800
O474        O  0.05505832  0.44125716  0.71171677    -0.39700
O475        O  0.16783646  0.27488161  0.62884442    -0.40400
O476        O  0.15013208  0.25328091  0.68634412    -0.40500
C477        C  0.31472392  0.40959652  0.61575765    -0.12800
C478        C  0.30125757  0.40013540  0.65429261     0.04200
C479        C  0.29457549  0.35830147  0.66230142    -0.08100
C480        C  0.29381748  0.32929529  0.63147201    -0.08800
C481        C  0.30039583  0.34015308  0.59248664    -0.03400
C482        C  0.31510543  0.37945754  0.58522929     0.03400
N483        N  0.32499675  0.38957148  0.54575273     0.65900
H484        H  0.32087584  0.44097626  0.60848822     0.14800
H485        H  0.28365184  0.29859350  0.63761432     0.14600
N486        N  0.28510902  0.34413040  0.70068481     0.73700
O487        O  0.35498866  0.37252315  0.52947225    -0.39800
O488        O  0.29696626  0.40168452  0.52427526    -0.39700
O489        O  0.24917337  0.33157767  0.70754586    -0.40400
O490        O  0.31350143  0.32817545  0.71906169    -0.40500
C491        C  0.18009608  0.13533372  0.82828263    -0.12800
C492        C  0.18561632  0.09517107  0.83765768     0.04200
C493        C  0.18793861  0.08563725  0.87772058    -0.08100
C494        C  0.19210020  0.11620117  0.90639221    -0.08800
C495        C  0.19038629  0.15700830  0.89691070    -0.03400
C496        C  0.17979975  0.16582714  0.85782343     0.03400
N497        N  0.16051506  0.20207202  0.84859575     0.65900
H498        H  0.17590010  0.14324750  0.79790498     0.14800
H499        H  0.19668019  0.10761414  0.93651023     0.14600
N500        N  0.17967306  0.04580440  0.89079328     0.73700
O501        O  0.17321477  0.22027142  0.81855269    -0.39800
O502        O  0.12305484  0.20326389  0.85698714    -0.39700
O503        O  0.20739283  0.02818774  0.90867675    -0.40400
O504        O  0.14301568  0.03779000  0.89979933    -0.40500
C505        C  0.13300758  0.28816517  0.90810216    -0.12800
C506        C  0.17148260  0.29335459  0.89124735     0.04200
C507        C  0.17538195  0.30195018  0.85109008    -0.08100
C508        C  0.14093090  0.29938543  0.82741257    -0.08800
C509        C  0.10293220  0.28943453  0.84367350    -0.03400
C510        C  0.09855207  0.28675114  0.88495018     0.03400
N511        N  0.06014706  0.28086733  0.90427699     0.65900
H512        H  0.12971278  0.28344054  0.93941339     0.14800
H513        H  0.14418301  0.30339096  0.79603502     0.14600
N514        N  0.21324661  0.31407981  0.83373101     0.73700
O515        O  0.05276775  0.24701044  0.91963632    -0.39800
O516        O  0.04410502  0.31172713  0.91994056    -0.39700
O517        O  0.23396294  0.28753680  0.81591705    -0.40400
O518        O  0.21718973  0.35048201  0.82342934    -0.40500
C519        C  0.34652673  0.20023031  0.58908141    -0.12800
C520        C  0.30626422  0.20581740  0.60305409     0.04200
C521        C  0.29860584  0.20191502  0.64365990    -0.08100
C522        C  0.33089645  0.19953706  0.66935796    -0.08800
C523        C  0.37126212  0.20142057  0.65600909    -0.03400
C524        C  0.37905674  0.19609009  0.61538337     0.03400
N525        N  0.41806807  0.18304189  0.60101870     0.65900
H526        H  0.35263444  0.19897526  0.55779358     0.14800
H527        H  0.32416902  0.19993215  0.70061615     0.14600
N528        N  0.25871228  0.20306316  0.66043812     0.73700
O529        O  0.43751528  0.15807465  0.62063626    -0.39800
O530        O  0.42791765  0.18763630  0.56545390    -0.39700
O531        O  0.24391987  0.17072821  0.67444803    -0.40400
O532        O  0.24709429  0.23650207  0.67485928    -0.40500
C533        C  0.39132294  0.10888219  0.95211503    -0.12800
C534        C  0.37647801  0.06968204  0.94194128     0.04200
C535        C  0.33672872  0.06520916  0.92665132    -0.08100
C536        C  0.31020179  0.09753600  0.93052946    -0.08800
C537        C  0.32365774  0.13475095  0.94667148    -0.03400
C538        C  0.36561546  0.14193220  0.95243731     0.03400
N539        N  0.38282393  0.18223950  0.95530362     0.65900
H540        H  0.42302749  0.11394010  0.95988257     0.14800
H541        H  0.27839367  0.09276744  0.92308483     0.14600
N542        N  0.32239886  0.02885063  0.90715914     0.73700
O543        O  0.41203205  0.18979549  0.97838200    -0.39800
O544        O  0.37791841  0.20549234  0.92693424    -0.39700
O545        O  0.30999800  0.99947606  0.92748610    -0.40400
O546        O  0.30936234  0.03143938  0.87259087    -0.40500
C547        C  0.11219275  0.35988658  0.01977577    -0.12800
C548        C  0.15217899  0.37351248  0.52676422     0.04200
C549        C  0.16430163  0.41144648  0.54372272    -0.08100
C550        C  0.13765116  0.44360394  0.54425323    -0.08800
C551        C  0.09877359  0.43815344  0.52912989    -0.03400
C552        C  0.08427689  0.39078649  0.01932252     0.03400
N553        N  0.04421402  0.38081174  0.00607723     0.65900
H554        H  0.10310607  0.32985317  0.00880416     0.14800
H555        H  0.14692556  0.47253239  0.55764615     0.14600
N556        N  0.20202692  0.41739813  0.56339727     0.73700
O557        O  0.03638287  0.38558564  0.97035585    -0.39800
O558        O  0.02427937  0.36671533  0.51281057    -0.39700
O559        O  0.22911321  0.43921782  0.54718095    -0.40400
O560        O  0.20141222  0.41598295  0.60036494    -0.40500
C561        C  0.08672569  0.46588269  0.86550305    -0.12800
C562        C  0.09543624  0.46259086  0.90573023     0.04200
C563        C  0.13631127  0.45392670  0.91578561    -0.08100
C564        C  0.16676503  0.45183216  0.88651589    -0.08800
C565        C  0.15821329  0.45927764  0.84755485    -0.03400
C566        C  0.11775217  0.46502870  0.83689810     0.03400
N567        N  0.10827120  0.47136251  0.79692106     0.65900
H568        H  0.05606690  0.47212439  0.85628132     0.14800
H569        H  0.19791848  0.44643189  0.89472989     0.14600
N570        N  0.14574137  0.94490314  0.95470435     0.73700
O571        O  0.12143349  0.50338334  0.78100509    -0.39800
O572        O  0.10017469  0.44050760  0.77558084    -0.39700
O573        O  0.16463718  0.41476253  0.96183501    -0.40400
O574        O  0.16284785  0.97360010  0.97402848    -0.40500
C575        C  0.31134500  0.03504540  0.59699733    -0.12800
C576        C  0.31975209  0.03940976  0.63663287     0.04200
C577        C  0.36090257  0.04824995  0.64747842    -0.08100
C578        C  0.39204049  0.04947702  0.61845176    -0.08800
C579        C  0.38275479  0.04455093  0.57860157    -0.03400
C580        C  0.34437744  0.53204384  0.56612872     0.03400
N581        N  0.33491244  0.50711496  0.53209288     0.65900
H582        H  0.28527336  0.51771054  0.58760141     0.14800
H583        H  0.42360000  0.05257119  0.62728439     0.14600
N584        N  0.37218364  0.05668520  0.68711814     0.73700
O585        O  0.34495528  0.47050532  0.53240872    -0.39800
O586        O  0.30312531  0.51480106  0.51343245    -0.39700
O587        O  0.39118459  0.03007083  0.70498762    -0.40400
O588        O  0.37744345  0.09343962  0.69757254    -0.40500
C589        C  0.44821227  0.37721515  0.66085060    -0.12800
C590        C  0.45170889  0.33683768  0.64726629     0.04200
C591        C  0.45435197  0.32845245  0.60642395    -0.08100
C592        C  0.45472878  0.36004566  0.58043739    -0.08800
C593        C  0.45501688  0.40026728  0.59396233    -0.03400
C594        C  0.45051667  0.40899874  0.63437157     0.03400
N595        N  0.44879231  0.45004388  0.64854036     0.65900
H596        H  0.44578301  0.38420292  0.69205362     0.14800
H597        H  0.96664845  0.35984597  0.55553394     0.14600
N598        N  0.98416654  0.29870723  0.59631130     0.73700
O599        O  0.48181568  0.46855585  0.65695110    -0.39800
O600        O  0.41820662  0.47048044  0.64014653    -0.39700
O601        O  0.96095749  0.27828402  0.57363867    -0.40400
O602        O  0.02207918  0.29738250  0.58990957    -0.40500
C603        C  0.03900135  0.07596673  0.84240266    -0.12800
C604        C  0.03890475  0.08404309  0.88304682     0.04200
C605        C  0.54077715  0.12813402  0.88823046    -0.08100
C606        C  0.54194605  0.15667792  0.86056919    -0.08800
C607        C  0.03421847  0.14768555  0.83084006    -0.03400
C608        C  0.03760005  0.10763348  0.81599726     0.03400
N609        N  0.03912626  0.09788404  0.77506261     0.65900
H610        H  0.03710631  0.04493554  0.83110147     0.14800
H611        H  0.55219177  0.19191666  0.87215563     0.14600
N612        N  0.54893012  0.13945498  0.92812407     0.73700
O613        O  0.07146604  0.08284521  0.76138824    -0.39800
O614        O  0.00612700  0.08992640  0.75754821    -0.39700
O615        O  0.58479481  0.15102681  0.93652164    -0.40400
O616        O  0.51994025  0.15272439  0.94899856    -0.40500
C617        C  0.33559995  0.90151901  0.33292112     0.86000
C618        C  0.31211512  0.87594160  0.36427346    -0.54300
C619        C  0.33517604  0.85294638  0.38880000     0.08900
C620        C  0.38262753  0.85856029  0.37848519     0.19800
C621        C  0.36726383  0.92716345  0.35793214    -0.55000
C622        C  0.39219798  0.90618772  0.38262940     0.09000
C623        C  0.36221313  0.87011461  0.31045436    -0.54500
C624        C  0.38761559  0.84735250  0.33256770     0.09600
H625        H  0.27909929  0.87604068  0.36664351     0.14100
H626        H  0.40223965  0.84045516  0.39735870    -0.00200
H627        H  0.36872281  0.96007505  0.35706021     0.14400
H628        H  0.36209301  0.86736920  0.27870048     0.14200
C629        C  0.15031184  0.59791044  0.14494329     0.86000
C630        C  0.12543722  0.62832513  0.16995929    -0.54300
C631        C  0.09887402  0.65261557  0.15089298     0.08900
C632        C  0.10186657  0.64334380  0.10361780     0.19800
C633        C  0.11762165  0.57357463  0.12014058    -0.55000
C634        C  0.09188590  0.59507812  0.09718068     0.09000
C635        C  0.17295166  0.62442774  0.11428918    -0.54500
C636        C  0.14968945  0.64934094  0.09200812     0.09600
H637        H  0.12875707  0.63004268  0.20152406     0.14100
H638        H  0.08179439  0.66262662  0.08637470    -0.00200
H639        H  0.11586678  0.54061867  0.11981287     0.14400
H640        H  0.20593631  0.62424275  0.11140369     0.14200
O641        O  0.03203546  0.96044636  0.42066005    -0.80700
O642        O  0.46172039  0.97495115  0.07740571    -0.80700
O643        O  0.07261820  0.99096212  0.50025156    -0.80700
O644        O  0.42719849  0.91766074  0.44703341    -0.80600
O645        O  0.02828110  0.96529035  0.05064312    -0.80800
O646        O  0.43915141  0.96386706  0.40337696    -0.80700
O647        O  0.43951141  0.92703275  0.03404446    -0.80700
O648        O  0.06880956  0.00159612  0.46017132    -0.80700
C649        C  0.06661260  0.97708115  0.42933433     1.09000
C650        C  0.45167797  0.93816369  0.06837778     1.08900
C651        C  0.06023560  0.96271908  0.03062077     1.09100
C652        C  0.42197468  0.92953903  0.41204070     1.08900
O653        O  0.45580297  0.54899933  0.45218938    -0.80700
O654        O  0.03277801  0.54519206  0.08388294    -0.80700
O655        O  0.02923048  0.56940934  0.44643602    -0.80700
O656        O  0.40146057  0.00068887  0.03779947    -0.80700
O657        O  0.44725207  0.05108445  0.04198756    -0.80700
O658        O  0.50868270  0.53349331  0.39592768    -0.80700
O659        O  0.40155065  0.51290441  0.46753739    -0.80600
O660        O  0.06376428  0.56927090  0.03116125    -0.80700
Co661      Co  0.48940025  0.50238237  0.43752009     1.51500
Co662      Co  0.98897346  0.00951118  0.04167948     1.51700
Co663      Co  0.03174642  0.53381869  0.49390635     1.51600
Co664      Co  0.41709168  0.96338386  0.99511166     1.51500
O665        O  0.48048416  0.98332732  0.48932665    -1.42600
C666        C  0.41896282  0.54760321  0.46149644     1.09800
C667        C  0.06059675  0.57010296  0.06943825     1.09000
C668        C  0.02433371  0.56392708  0.40894205     1.09000
C669        C  0.41273402  0.54119608  0.04383959     1.09000
O670        O  0.31726734  0.78677690  0.42104967    -0.80700
O671        O  0.24362197  0.72499638  0.08846965    -0.80700
O672        O  0.29281052  0.80806913  0.02580091    -0.80700
O673        O  0.28529447  0.67913922  0.47315005    -0.80600
O674        O  0.24745383  0.80635550  0.07457801    -0.80800
O675        O  0.32577577  0.72889520  0.48518781    -0.80700
O676        O  0.28592473  0.71285962  0.04008242    -0.80700
O677        O  0.28930089  0.84148506  0.44769170    -0.80700
C678        C  0.31400663  0.82601408  0.42115486     1.09000
C679        C  0.27848756  0.71477479  0.07645810     1.08900
C680        C  0.28240116  0.81668442  0.06098815     1.09100
C681        C  0.31996958  0.69067525  0.48270500     1.08900
O682        O  0.25488052  0.71317298  0.42213252    -0.80700
O683        O  0.16863854  0.80261835  0.04244361    -0.80700
O684        O  0.20846089  0.80599125  0.45071273    -0.80700
O685        O  0.20608189  0.66894240  0.04516817    -0.80700
O686        O  0.16227795  0.71657161  0.06009864    -0.80700
O687        O  0.23965823  0.76518792  0.41476275    -0.80700
O688        O  0.20472154  0.68256225  0.45792234    -0.80600
O689        O  0.22572566  0.84475541  0.51405944    -0.80700
Co690      Co  0.27829104  0.75831037  0.45982235     1.51500
Co691      Co  0.20629986  0.76238380  0.06213530     1.51700
Co692      Co  0.25721981  0.80202422  0.48460858     1.51600
Co693      Co  0.24170042  0.69953978  0.00259514     1.51500
O694        O  0.23514443  0.74672757  0.50637579    -1.42600
C695        C  0.22396335  0.68774518  0.42537024     1.09000
C696        C  0.17963864  0.83858741  0.03305616     1.09000
C697        C  0.21001544  0.78742023  0.41871457     1.09000
C698        C  0.17260999  0.67943775  0.06303362     1.09000
O699        O  0.04155047  0.79667487  0.31696165    -0.80700
O700        O  0.48737338  0.77928953  0.17093346    -0.80700
O701        O  0.07089734  0.78022997  0.21970127    -0.80700
O702        O  0.40690742  0.79340103  0.28320600    -0.80600
O703        O  0.03665502  0.77557665  0.16621977    -0.80800
O704        O  0.45481753  0.81613437  0.32309735    -0.80700
O705        O  0.44742177  0.81309990  0.21281732    -0.80700
O706        O  0.07977942  0.74894879  0.28658029    -0.80700
C707        C  0.07535049  0.77840472  0.31180093     1.09000
C708        C  0.46452590  0.81026875  0.17941422     1.08900
C709        C  0.06502937  0.79167488  0.18565917     1.09100
C710        C  0.41789022  0.81717970  0.31217888     1.08900
O711        O  0.43829013  0.72947977  0.32395647    -0.80700
O712        O  0.03639628  0.69466549  0.16847617    -0.80700
O713        O  0.02493596  0.68262452  0.26688725    -0.80700
O714        O  0.39576341  0.75001371  0.21185602    -0.80700
O715        O  0.44574570  0.71647214  0.18075736    -0.80700
O716        O  0.51996773  0.71698980  0.32744516    -0.80700
O717        O  0.43657852  0.70803372  0.26303679    -0.80600
O718        O  0.08623711  0.69698282  0.21090357    -0.80700
Co719      Co  0.48847417  0.76538776  0.31874636     1.51500
Co720      Co  0.99881988  0.73967716  0.19566375     1.51700
Co721      Co  0.04522908  0.73165465  0.24043604     1.51600
Co722      Co  0.44170906  0.76231505  0.24056943     1.51500
O723        O  0.49493593  0.76634702  0.25847469    -1.42600
C724        C  0.42803679  0.70266986  0.29840994     1.09000
C725        C  0.07277867  0.68337355  0.17734740     1.09000
C726        C  0.02724412  0.68587738  0.30388237     1.09000
C727        C  0.40756465  0.72593388  0.18468463     1.09000
O728        O  0.30890985  0.96659405  0.30413481    -0.80700
O729        O  0.25404226  0.52808139  0.14467397    -0.80700
O730        O  0.29186978  0.94475686  0.20655955    -0.80700
O731        O  0.27809680  0.60058357  0.24262095    -0.80600
O732        O  0.24937342  0.94656376  0.15713401    -0.80800
O733        O  0.30408937  0.54809397  0.27464833    -0.80700
O734        O  0.29333003  0.54077540  0.19393497    -0.80700
O735        O  0.28060382  0.90920311  0.28094292    -0.80700
C736        C  0.30699019  0.92697737  0.30471965     1.09000
C737        C  0.28845100  0.54020592  0.15771117     1.08900
C738        C  0.28238764  0.93514070  0.17131346     1.09100
C739        C  0.30424565  0.58668461  0.26572546     1.08900
O740        O  0.24559777  0.53102512  0.31016285    -0.80700
O741        O  0.17027927  0.95185181  0.19057376    -0.80700
O742        O  0.20082069  0.94203923  0.28544807    -0.80700
O743        O  0.21087629  0.58328752  0.18898624    -0.80700
O744        O  0.17082098  0.53189710  0.16997008    -0.80700
O745        O  0.23080949  0.99181024  0.31492524    -0.80700
O746        O  0.20954883  0.57026112  0.27227034    -0.80600
O747        O  0.21200869  0.90765367  0.21623903    -0.80700
Co748      Co  0.27051112  0.49206957  0.26932418     1.51500
Co749      Co  0.20958597  0.98960985  0.16862271     1.51700
Co750      Co  0.24717106  0.94776125  0.24739447     1.51600
Co751      Co  0.24740972  0.55406613  0.23034409     1.51500
O752        O  0.22399926  0.00045995  0.22583360    -1.42600
C753        C  0.22346374  0.56252393  0.30586035     1.09000
C754        C  0.17827822  0.91627608  0.19979947     1.09000
C755        C  0.20173597  0.96516051  0.31498125     1.09000
C756        C  0.17900370  0.56985885  0.16981922     1.09000
C757        C  0.35790529  0.68391512  0.30127000    -0.12800
C758        C  0.39740573  0.67081906  0.30598231     0.04200
C759        C  0.40513358  0.62878784  0.30188347    -0.08100
C760        C  0.37338570  0.60144651  0.29181084    -0.08800
C761        C  0.33485272  0.61544977  0.28271489    -0.03400
C762        C  0.32710282  0.65739461  0.28803460     0.03400
N763        N  0.28840915  0.67414334  0.27999245     0.65900
H764        H  0.35188373  0.71608649  0.30375894     0.14800
H765        H  0.37985234  0.56947182  0.28805392     0.14600
N766        N  0.44503146  0.61312508  0.30490029     0.73700
O767        O  0.25734193  0.66087850  0.29799231    -0.39800
O768        O  0.28694108  0.70821943  0.26398731    -0.39700
O769        O  0.45358956  0.59517449  0.33594432    -0.40400
O770        O  0.46314658  0.60276074  0.27348230    -0.40500
C771        C  0.07947209  0.86182456  0.17071214    -0.12800
C772        C  0.09264679  0.82215127  0.17051661     0.04200
C773        C  0.13403155  0.81398546  0.17348836    -0.08100
C774        C  0.16154667  0.84530136  0.18244901    -0.08800
C775        C  0.14807741  0.88487046  0.18834061    -0.03400
C776        C  0.10647416  0.89374064  0.18060711     0.03400
N777        N  0.08953382  0.93314559  0.18768699     0.65900
H778        H  0.04708642  0.86734372  0.16943216     0.14800
H779        H  0.19301018  0.83826212  0.18638199     0.14600
N780        N  0.14674491  0.77286766  0.17386172     0.73700
O781        O  0.06052109  0.94419965  0.16665444    -0.39800
O782        O  0.09499065  0.95096040  0.22051801    -0.39700
O783        O  0.15284701  0.75699016  0.20656163    -0.40400
O784        O  0.13875681  0.75004011  0.14450349    -0.40500
C785        C  0.31232943  0.91559273  0.10606990    -0.12800
C786        C  0.30540183  0.90583078  0.14594024     0.04200
C787        C  0.30593899  0.86425967  0.15563478    -0.08100
C788        C  0.30831616  0.83420090  0.12605160    -0.08800
C789        C  0.30733941  0.84403040  0.08661298    -0.03400
C790        C  0.31390021  0.88473140  0.07653069     0.03400
N791        N  0.31775639  0.89471642  0.03607779     0.65900
H792        H  0.31226502  0.94704095  0.09746434     0.14800
H793        H  0.30405895  0.80272404  0.13395464     0.14600
N794        N  0.29701577  0.85081994  0.19425692     0.73700
O795        O  0.34896379  0.88322994  0.01735477    -0.39800
O796        O  0.28604140  0.90183240  0.01715024    -0.39700
O797        O  0.26457826  0.83021016  0.19947849    -0.40400
O798        O  0.32674714  0.84440433  0.21611186    -0.40500
C799        C  0.18779313  0.61891691  0.34023750    -0.12800
C800        C  0.21921983  0.59098123  0.33954436     0.04200
C801        C  0.25048123  0.59524263  0.36799942    -0.08100
C802        C  0.25042583  0.62767067  0.39451844    -0.08800
C803        C  0.21966501  0.65584288  0.39492410    -0.03400
C804        C  0.18742011  0.65112768  0.36802465     0.03400
N805        N  0.15409338  0.67798518  0.36853531     0.65900
H806        H  0.16368681  0.61587751  0.31889385     0.14800
H807        H  0.27515062  0.63065922  0.41525054     0.14600
N808        N  0.28385265  0.56836936  0.37017673     0.73700
O809        O  0.14143364  0.69100952  0.33644965    -0.39800
O810        O  0.13072816  0.67856467  0.39814318    -0.39700
O811        O  0.31906742  0.58223273  0.36216183    -0.40400
O812        O  0.28079171  0.53977166  0.39405632    -0.40500
C813        C  0.13832796  0.79814506  0.40326029    -0.12800
C814        C  0.17736869  0.78951284  0.38916365     0.04200
C815        C  0.18278613  0.78168729  0.34829995    -0.08100
C816        C  0.14923331  0.78157678  0.32335414    -0.08800
C817        C  0.10995702  0.78826069  0.33793523    -0.03400
C818        C  0.10478658  0.79750028  0.37841075     0.03400
N819        N  0.06591328  0.80595232  0.39539080     0.65900
H820        H  0.13341447  0.80450891  0.43431920     0.14800
H821        H  0.15385648  0.77480006  0.29232899     0.14600
N822        N  0.22147709  0.77349871  0.33090216     0.73700
O823        O  0.05360278  0.78551719  0.42427449    -0.39800
O824        O  0.05203750  0.84088994  0.39117782    -0.39700
O825        O  0.22577164  0.73923243  0.31425184    -0.40400
O826        O  0.24254014  0.80315687  0.31846069    -0.40500
C827        C  0.35064925  0.69817894  0.09190029    -0.12800
C828        C  0.31067701  0.70654141  0.10509860     0.04200
C829        C  0.30332317  0.70967086  0.14607561    -0.08100
C830        C  0.33580054  0.71245929  0.17144883    -0.08800
C831        C  0.37580703  0.71031445  0.15783772    -0.03400
C832        C  0.38310906  0.69869019  0.11858728     0.03400
N833        N  0.42254073  0.68573421  0.10655308     0.65900
H834        H  0.35673225  0.69209940  0.06103577     0.14800
H835        H  0.32951091  0.71789745  0.20233520     0.14600
N836        N  0.26356978  0.70985508  0.16340647     0.73700
O837        O  0.44884819  0.71187737  0.09619361    -0.39800
O838        O  0.43463704  0.65247534  0.11905624    -0.39700
O839        O  0.25070500  0.67738868  0.17868942    -0.40400
O840        O  0.25104095  0.74304673  0.17763819    -0.40500
C841        C  0.35543625  0.58386761  0.47453145    -0.12800
C842        C  0.39673966  0.58698660  0.46687738     0.04200
C843        C  0.41507410  0.62706397  0.46857935    -0.08100
C844        C  0.39095045  0.66169982  0.47575812    -0.08800
C845        C  0.34969236  0.65716871  0.48542553    -0.03400
C846        C  0.33346478  0.61687342  0.48818070     0.03400
N847        N  0.29493987  0.60840479  0.50648247     0.65900
H848        H  0.34016041  0.55480652  0.47107844     0.14800
H849        H  0.40438252  0.69190130  0.47297079     0.14600
N850        N  0.45743374  0.63412895  0.46165085     0.73700
O851        O  0.26727584  0.59056256  0.48664942    -0.39800
O852        O  0.29386456  0.60580665  0.54337226    -0.39700
O853        O  0.46967138  0.63556728  0.42648668    -0.40400
O854        O  0.47752949  0.65343213  0.48778182    -0.40500
C855        C  0.11875749  0.86098383  0.52917424    -0.12800
C856        C  0.14898437  0.87059545  0.03757789     0.04200
C857        C  0.15839031  0.91132233  0.04882198    -0.08100
C858        C  0.12846213  0.94060647  0.04728192    -0.08800
C859        C  0.08890864  0.93006533  0.03584316    -0.03400
C860        C  0.08884275  0.89000620  0.52761283     0.03400
N861        N  0.04791717  0.87611640  0.52088404     0.65900
H862        H  0.10922842  0.82926305  0.52788912     0.14800
H863        H  0.13623411  0.97194589  0.05516387     0.14600
N864        N  0.19600280  0.92305465  0.06655444     0.73700
O865        O  0.03343859  0.88012454  0.48706572    -0.39800
O866        O  0.01796768  0.89733473  0.99329554    -0.39700
O867        O  0.19550279  0.92777302  0.10337604    -0.40400
O868        O  0.22115761  0.94415575  0.04700277    -0.40500
C869        C  0.10236980  0.94120642  0.37291026    -0.12800
C870        C  0.10388967  0.97074609  0.40340038     0.04200
C871        C  0.13993604  0.99583235  0.40574238    -0.08100
C872        C  0.17086775  0.99282362  0.37706434    -0.08800
C873        C  0.16902240  0.96393894  0.34640790    -0.03400
C874        C  0.13500959  0.93622864  0.34585713     0.03400
N875        N  0.13478367  0.90048460  0.32110678     0.65900
H876        H  0.07619301  0.92065573  0.37095035     0.14800
H877        H  0.19693445  0.01356992  0.37916174     0.14600
N878        N  0.15618197  0.52344856  0.44854942     0.73700
O879        O  0.16356807  0.87615118  0.32418881    -0.39800
O880        O  0.10179090  0.88762146  0.30600211    -0.39700
O881        O  0.17067097  0.01523195  0.46369245    -0.40400
O882        O  0.17265888  0.55822026  0.44475244    -0.40500
C883        C  0.31185899  0.55559312  0.09065653    -0.12800
C884        C  0.32208763  0.55343169  0.13006079     0.04200
C885        C  0.36361577  0.56249296  0.14002024    -0.08100
C886        C  0.39364147  0.56608999  0.11011369    -0.08800
C887        C  0.38344298  0.56228483  0.07036867    -0.03400
C888        C  0.33700353  0.05181789  0.05818948     0.03400
N889        N  0.32474620  0.03898087  0.01984291     0.65900
H890        H  0.27551491  0.04414580  0.07714573     0.14800
H891        H  0.42546895  0.56809483  0.11822053     0.14600
N892        N  0.37660240  0.56880609  0.17957965     0.73700
O893        O  0.32207248  0.00121871  0.01281224    -0.39800
O894        O  0.29963782  0.06108102  0.00333996    -0.39700
O895        O  0.39928883  0.54284030  0.19405427    -0.40400
O896        O  0.37988458  0.60504137  0.19230204    -0.40500
C897        C  0.45500122  0.88371345  0.16492377    -0.12800
C898        C  0.46027660  0.84343172  0.15110718     0.04200
C899        C  0.45975129  0.83561651  0.11011033    -0.08100
C900        C  0.46221409  0.86758932  0.08450339    -0.08800
C901        C  0.45575038  0.90703762  0.09786562    -0.03400
C902        C  0.45019755  0.91507875  0.13826877     0.03400
N903        N  0.43306511  0.95254790  0.15132303     0.65900
H904        H  0.45213647  0.89035038  0.19613865     0.14800
H905        H  0.94073322  0.85990743  0.05323768     0.14600
N906        N  0.94331448  0.79591851  0.09464251     0.73700
O907        O  0.45639173  0.98286712  0.15818650    -0.39800
O908        O  0.39610786  0.95838219  0.14385425    -0.39700
O909        O  0.90745682  0.78346892  0.08728920    -0.40400
O910        O  0.97247577  0.78029796  0.07570546    -0.40500
C911        C  0.05088804  0.58527311  0.34398903    -0.12800
C912        C  0.04005339  0.59489771  0.38324221     0.04200
C913        C  0.55730639  0.63160142  0.39928505    -0.08100
C914        C  0.55201211  0.66183135  0.37238726    -0.08800
C915        C  0.04272181  0.65522083  0.32938400    -0.03400
C916        C  0.05314697  0.61628746  0.31672410     0.03400
N917        N  0.07061923  0.60983963  0.27865482     0.65900
H918        H  0.05569673  0.55408799  0.33449774     0.14800
H919        H  0.55339373  0.69310235  0.38305880     0.14600
N920        N  0.57125617  0.64306482  0.43776710     0.73700
O921        O  0.04795394  0.59937408  0.25032411    -0.39800
O922        O  0.10498698  0.62622270  0.27155283    -0.39700
O923        O  0.60861023  0.63904011  0.44465161    -0.40400
O924        O  0.55258633  0.67023979  0.45692617    -0.40500
C925        C  0.32790798  0.90193748  0.83697783     0.86000
C926        C  0.30546978  0.87802182  0.86982251    -0.54300
C927        C  0.32822754  0.85518823  0.89429201     0.08900
C928        C  0.37584936  0.85988140  0.88277353     0.19800
C929        C  0.36040836  0.92822117  0.86124396    -0.55000
C930        C  0.38601053  0.90754797  0.88609665     0.09000
C931        C  0.35425154  0.87019924  0.81471337    -0.54500
C932        C  0.38048982  0.84812535  0.83661620     0.09600
H933        H  0.27330469  0.88125261  0.87529622     0.14100
H934        H  0.39563266  0.84194973  0.90163753    -0.00200
H935        H  0.36178941  0.96108898  0.85988080     0.14400
H936        H  0.35338529  0.86689996  0.78294815     0.14200
C937        C  0.14537019  0.60230411  0.64944824     0.86000
C938        C  0.12123719  0.63168784  0.67624891    -0.54300
C939        C  0.09400034  0.65641317  0.65879697     0.08900
C940        C  0.09473906  0.64839794  0.61101240     0.19800
C941        C  0.11181023  0.57840036  0.62491876    -0.55000
C942        C  0.08455958  0.60006990  0.60350153     0.09000
C943        C  0.16640736  0.63009068  0.61877282    -0.54500
C944        C  0.14200122  0.65520354  0.59764185     0.09600
H945        H  0.12535078  0.63234557  0.70783400     0.14100
H946        H  0.07382163  0.66806503  0.59516553    -0.00200
H947        H  0.11067096  0.54544026  0.62356604     0.14400
H948        H  0.19924029  0.62990120  0.61431085     0.14200
O949        O  0.02101601  0.95659870  0.92557386    -0.80700
O950        O  0.46803448  0.96796116  0.57494255    -0.80700
O951        O  0.06527497  0.98804001  0.00359186    -0.80700
O952        O  0.42017811  0.92008819  0.95103279    -0.80600
O953        O  0.03906881  0.96262459  0.54663939    -0.80800
O954        O  0.43686879  0.96338956  0.90565900    -0.80700
O955        O  0.44615872  0.92096266  0.53006547    -0.80700
O956        O  0.06262119  0.99420923  0.96355231    -0.80700
C957        C  0.05718040  0.96846263  0.93398927     1.09000
C958        C  0.45644379  0.93156944  0.56507635     1.08900
C959        C  0.06992568  0.96310772  0.52514694     1.09100
C960        C  0.41683980  0.93067016  0.91533097     1.08900
O961        O  0.44534211  0.53896606  0.93894443    -0.80700
O962        O  0.02916986  0.54573830  0.58930222    -0.80700
O963        O  0.03226617  0.56008565  0.95039476    -0.80700
O964        O  0.40507986  0.99295433  0.53792176    -0.80700
O965        O  0.44857147  0.04520625  0.54454855    -0.80700
O966        O  0.50387095  0.52023740  0.88908066    -0.80700
O967        O  0.39087654  0.50291761  0.95479122    -0.80600
O968        O  0.05163493  0.57812193  0.53764573    -0.80700
Co969      Co  0.48262939  0.49392300  0.93303440     1.51500
Co970      Co  0.99816244  0.00479677  0.54000872     1.51700
Co971      Co  0.02488105  0.52787690  0.00168149     1.51600
Co972      Co  0.42263261  0.95871479  0.49316710     1.51500
O973        O  0.47661056  0.98539467  0.99096252    -1.42600
C974        C  0.40743443  0.53577467  0.94306386     1.09800
C975        C  0.05249329  0.57475389  0.57577002     1.09000
C976        C  0.02445279  0.55979149  0.91309283     1.09000
C977        C  0.42009257  0.53228225  0.55241014     1.09000
O978        O  0.30454897  0.79115919  0.92737592    -0.80700
O979        O  0.24481961  0.72765390  0.59418578    -0.80700
O980        O  0.30110077  0.80785493  0.52567642    -0.80700
O981        O  0.27311589  0.65435792  0.98499147    -0.80600
O982        O  0.25375758  0.80541415  0.57268703    -0.80800
O983        O  0.30576223  0.70579779  0.95520491    -0.80700
O984        O  0.27390920  0.68483129  0.55196175    -0.80700
O985        O  0.28163966  0.84807872  0.95326095    -0.80700
C986        C  0.30514552  0.83055306  0.92759427     1.09000
C987        C  0.27208051  0.70247975  0.58525887     1.08900
C988        C  0.28928010  0.81571355  0.56102732     1.09100
C989        C  0.30294105  0.66800576  0.96406982     1.08900
O990        O  0.23609867  0.70830045  0.91685421    -0.80700
O991        O  0.17683801  0.80287983  0.53547880    -0.80700
O992        O  0.20387128  0.81201020  0.94945624    -0.80700
O993        O  0.19047099  0.66703474  0.54322681    -0.80700
O994        O  0.16213525  0.72205341  0.56598177    -0.80700
O995        O  0.22801262  0.76712773  0.90896694    -0.80700
O996        O  0.19883137  0.68284038  0.96401024    -0.80600
O997        O  0.21501922  0.84668460  0.01812962    -0.80700
Co998      Co  0.26232270  0.74913633  0.95225966     1.51500
Co999      Co  0.21107512  0.76315168  0.56162772     1.51700
Co1000     Co  0.24938176  0.80729709  0.98582333     1.51600
Co1001     Co  0.23740364  0.68396314  0.50652708     1.51500
O1002       O  0.22501360  0.75529958  0.00444695    -1.42600
C1003       C  0.20749074  0.68476107  0.92767090     1.09000
C1004       C  0.18944928  0.83853513  0.52658241     1.09000
C1005       C  0.20220795  0.79357094  0.91692643     1.09000
C1006       C  0.16425039  0.68326634  0.56615622     1.09000
O1007       O  0.03273711  0.80391395  0.82330847    -0.80700
O1008       O  0.48809992  0.77797512  0.67531435    -0.80700
O1009       O  0.06464558  0.78476092  0.72666454    -0.80700
O1010       O  0.40102444  0.79636700  0.78477366    -0.80600
O1011       O  0.03046654  0.77238499  0.67412156    -0.80800
O1012       O  0.44767800  0.81550722  0.82806310    -0.80700
O1013       O  0.44481761  0.81207056  0.71360986    -0.80700
O1014       O  0.07521615  0.75884316  0.79478185    -0.80700
C1015       C  0.06793621  0.78943346  0.81809198     1.09000
C1016       C  0.46452597  0.80858263  0.68147176     1.08900
C1017       C  0.05856239  0.79162601  0.69150769     1.09100
C1018       C  0.41126409  0.81828439  0.81557776     1.08900
O1019       O  0.42757378  0.73114570  0.82816245    -0.80700
O1020       O  0.03060665  0.69346414  0.68045666    -0.80700
O1021       O  0.02401076  0.68737369  0.77755310    -0.80700
O1022       O  0.39172329  0.74995229  0.71183961    -0.80700
O1023       O  0.44431475  0.71546017  0.68523773    -0.80700
O1024       O  0.50847316  0.71217222  0.82983794    -0.80700
O1025       O  0.42563541  0.70908332  0.76757947    -0.80600
O1026       O  0.08347495  0.70256658  0.71888614    -0.80700
Co1027     Co  0.47980512  0.76344353  0.82345773     1.51500
Co1028     Co  0.99308216  0.73803241  0.70644269     1.51700
Co1029     Co  0.04165393  0.73628885  0.74963190     1.51600
Co1030     Co  0.43573973  0.76244554  0.74333063     1.51500
O1031       O  0.48870826  0.76537367  0.76313190    -1.42600
C1032       C  0.41594336  0.70489452  0.80294370     1.09000
C1033       C  0.06848566  0.68611767  0.68683547     1.09000
C1034       C  0.02792133  0.68969928  0.81436993     1.09000
C1035       C  0.40566248  0.72438819  0.68674620     1.09000
O1036       O  0.29755146  0.96439168  0.80668887    -0.80700
O1037       O  0.25122747  0.52923938  0.64808958    -0.80700
O1038       O  0.28582835  0.94016896  0.71204363    -0.80700
O1039       O  0.27149747  0.60100339  0.75365870    -0.80600
O1040       O  0.24413849  0.94210707  0.66176714    -0.80800
O1041       O  0.29332616  0.54760824  0.78741036    -0.80700
O1042       O  0.28924661  0.54525305  0.69808297    -0.80700
O1043       O  0.27057562  0.90586147  0.78594919    -0.80700
C1044       C  0.29701344  0.92504051  0.80834820     1.09000
C1045       C  0.28545361  0.54136196  0.66140583     1.08900
C1046       C  0.27678626  0.93002856  0.67676443     1.09100
C1047       C  0.29438818  0.58626408  0.77950974     1.08900
O1048       O  0.22913319  0.53078334  0.81660567    -0.80700
O1049       O  0.16361341  0.95216368  0.69196590    -0.80700
O1050       O  0.19138271  0.94209429  0.78714707    -0.80700
O1051       O  0.20674421  0.58662661  0.69288198    -0.80700
O1052       O  0.16771893  0.53548772  0.67144243    -0.80700
O1053       O  0.21767493  0.98694579  0.82639745    -0.80700
O1054       O  0.19949318  0.56986685  0.77380758    -0.80600
O1055       O  0.20338690  0.90700631  0.71949272    -0.80700
Co1056     Co  0.26084154  0.49265270  0.77660926     1.51500
Co1057     Co  0.20664132  0.98829421  0.67280998     1.51700
Co1058     Co  0.24026411  0.94507749  0.75161810     1.51600
Co1059     Co  0.24161441  0.55571469  0.73454501     1.51500
O1060       O  0.22097757  0.99728233  0.73077021    -1.42600
C1061       C  0.20635918  0.56157388  0.80927550     1.09000
C1062       C  0.17023224  0.91644625  0.70208820     1.09000
C1063       C  0.18913333  0.96176140  0.81897584     1.09000
C1064       C  0.17525725  0.57359185  0.67281977     1.09000
C1065       C  0.34649437  0.68245478  0.81816748    -0.12800
C1066       C  0.38693822  0.67191564  0.81267533     0.04200
C1067       C  0.39589274  0.63075403  0.80537425    -0.08100
C1068       C  0.36452125  0.60171607  0.80039978    -0.08800
C1069       C  0.32422923  0.61371816  0.79916493    -0.03400
C1070       C  0.31514586  0.65410540  0.81019907     0.03400
N1071       N  0.27463989  0.66817794  0.81081186     0.65900
H1072       H  0.33901062  0.71399243  0.82355481     0.14800
H1073       H  0.37214390  0.57075699  0.79238648     0.14600
N1074       N  0.43635075  0.61813213  0.79862496     0.73700
O1075       O  0.26128197  0.68196054  0.84311627    -0.39800
O1076       O  0.26066380  0.68179356  0.77954006    -0.39700
O1077       O  0.45294433  0.59909565  0.82554584    -0.40400
O1078       O  0.44727106  0.61121336  0.76352488    -0.40500
C1079       C  0.07129652  0.86088380  0.67341105    -0.12800
C1080       C  0.08488213  0.82130770  0.67320039     0.04200
C1081       C  0.12664692  0.81430999  0.67528767    -0.08100
C1082       C  0.15321575  0.84570142  0.68595562    -0.08800
C1083       C  0.13976150  0.88513146  0.69048208    -0.03400
C1084       C  0.09864815  0.89324843  0.68061853     0.03400
N1085       N  0.08352095  0.93328209  0.67782456     0.65900
H1086       H  0.03900718  0.86652182  0.67118988     0.14800
H1087       H  0.18483854  0.83924550  0.68959048     0.14600
N1088       N  0.14221825  0.77505850  0.66696408     0.73700
O1089       O  0.08085612  0.94760113  0.64394330    -0.39800
O1090       O  0.05917415  0.94566268  0.70413322    -0.39700
O1091       O  0.14172136  0.76222589  0.63182853    -0.40400
O1092       O  0.16654886  0.75980957  0.69057782    -0.40500
C1093       C  0.31326855  0.91214644  0.61384326    -0.12800
C1094       C  0.30100939  0.90069252  0.65207083     0.04200
C1095       C  0.30079598  0.85856938  0.66011084    -0.08100
C1096       C  0.30779849  0.82989513  0.62970957    -0.08800
C1097       C  0.31246145  0.84133978  0.59056270    -0.03400
C1098       C  0.32022220  0.88261912  0.58366913     0.03400
N1099       N  0.33080535  0.89450186  0.54489405     0.65900
H1100       H  0.31426128  0.94397886  0.60655483     0.14800
H1101       H  0.30249045  0.79803425  0.63578791     0.14600
N1102       N  0.28699597  0.84298129  0.69676708     0.73700
O1103       O  0.36267748  0.88032283  0.52937497    -0.39800
O1104       O  0.30298655  0.90598456  0.52285159    -0.39700
O1105       O  0.25301464  0.82429833  0.69727943    -0.40400
O1106       O  0.31367537  0.83201780  0.72035182    -0.40500
C1107       C  0.18054345  0.62925722  0.83211610    -0.12800
C1108       C  0.19225574  0.58990409  0.84164304     0.04200
C1109       C  0.19803480  0.58226584  0.88183424    -0.08100
C1110       C  0.19998073  0.61399243  0.90950628    -0.08800
C1111       C  0.19222017  0.65349363  0.89951769    -0.03400
C1112       C  0.17952621  0.66077931  0.86081342     0.03400
N1113       N  0.16445696  0.69909144  0.85008674     0.65900
H1114       H  0.17383572  0.63624490  0.80199011     0.14800
H1115       H  0.20754935  0.60726793  0.93954464     0.14600
N1116       N  0.19217101  0.54313801  0.89723047     0.73700
O1117       O  0.18562320  0.72074903  0.82720576    -0.39800
O1118       O  0.12636155  0.70305888  0.85051244    -0.39700
O1119       O  0.22239273  0.52671214  0.91221077    -0.40400
O1120       O  0.15740618  0.53629961  0.91214814    -0.40500
C1121       C  0.12930770  0.80024763  0.90800087    -0.12800
C1122       C  0.16825018  0.80033354  0.89110673     0.04200
C1123       C  0.17320759  0.80747070  0.85076443    -0.08100
C1124       C  0.13920353  0.80772256  0.82698431    -0.08800
C1125       C  0.10042913  0.80446427  0.84345837    -0.03400
C1126       C  0.09534676  0.80532214  0.88474119     0.03400
N1127       N  0.05723757  0.81463239  0.90337487     0.65900
H1128       H  0.12552321  0.79777327  0.93953790     0.14800
H1129       H  0.14299677  0.81041755  0.79549624     0.14600
N1130       N  0.21093617  0.82136805  0.83460508     0.73700
O1131       O  0.04736344  0.79790939  0.93518626    -0.39800
O1132       O  0.04089734  0.84762997  0.89532265    -0.39700
O1133       O  0.22533868  0.80258592  0.80506578    -0.40400
O1134       O  0.21839022  0.85894949  0.83806623    -0.40500
C1135       C  0.34533585  0.69710477  0.59598803    -0.12800
C1136       C  0.30599279  0.69698462  0.61249171     0.04200
C1137       C  0.30166957  0.69695747  0.65373456    -0.08100
C1138       C  0.33625165  0.69902663  0.67700791    -0.08800
C1139       C  0.37521253  0.70477874  0.66054264    -0.03400
C1140       C  0.38007065  0.70145007  0.61940163     0.03400
N1141       N  0.41923212  0.70366488  0.60057420     0.65900
H1142       H  0.34909709  0.69648132  0.56441098     0.14800
H1143       H  0.33215138  0.70037342  0.70867320     0.14600
N1144       N  0.26303879  0.69824811  0.67317961     0.73700
O1145       O  0.44675464  0.68059441  0.61154837    -0.39800
O1146       O  0.42239558  0.71891549  0.56701069    -0.39700
O1147       O  0.24816854  0.66549792  0.68615865    -0.40400
O1148       O  0.25373640  0.73106774  0.69054161    -0.40500
C1149       C  0.40001014  0.60955305  0.95132740    -0.12800
C1150       C  0.38352295  0.57243433  0.93775924     0.04200
C1151       C  0.34404419  0.57105375  0.92258829    -0.08100
C1152       C  0.31882983  0.60431770  0.92844861    -0.08800
C1153       C  0.33341464  0.63951583  0.94843903    -0.03400
C1154       C  0.37569926  0.64338720  0.95627678     0.03400
N1155       N  0.39496473  0.68006390  0.97058519     0.65900
H1156       H  0.43152890  0.61180453  0.96055478     0.14800
H1157       H  0.28734227  0.60196044  0.91909275     0.14600
N1158       N  0.33015927  0.53630220  0.90055907     0.73700
O1159       O  0.40939609  0.68014360  0.00479026    -0.39800
O1160       O  0.41258804  0.70230293  0.94560584    -0.39700
O1161       O  0.34954247  0.52654695  0.86971505    -0.40400
O1162       O  0.30823785  0.50986407  0.91739564    -0.40500
C1163       C  0.10839990  0.85973062  0.02903876    -0.12800
C1164       C  0.16021196  0.87204076  0.52875258     0.04200
C1165       C  0.17132420  0.91399018  0.52882890    -0.08100
C1166       C  0.14115851  0.94309560  0.52879999    -0.08800
C1167       C  0.10016685  0.93155230  0.52748329    -0.03400
C1168       C  0.07813213  0.88886383  0.02807321     0.03400
N1169       N  0.03767647  0.87624423  0.01654322     0.65900
H1170       H  0.10054289  0.82849637  0.02084033     0.14800
H1171       H  0.14992374  0.97503282  0.52910673     0.14600
N1172       N  0.21256306  0.92840508  0.52782947     0.73700
O1173       O  0.02479135  0.84066072  0.02345376    -0.39800
O1174       O  0.03325546  0.84841040  0.54212054    -0.39700
O1175       O  0.22692209  0.93930703  0.49511352    -0.40400
O1176       O  0.22672364  0.94529674  0.55862740    -0.40500
C1177       C  0.08237430  0.95764782  0.86586987    -0.12800
C1178       C  0.09155874  0.95802537  0.90608391     0.04200
C1179       C  0.13305434  0.95304677  0.91609403    -0.08100
C1180       C  0.16357943  0.95285818  0.88685183    -0.08800
C1181       C  0.15446921  0.95580099  0.84723054    -0.03400
C1182       C  0.11282971  0.95437074  0.83652450     0.03400
N1183       N  0.10048962  0.94485428  0.79710461     0.65900
H1184       H  0.05091732  0.95924150  0.85706780     0.14800
H1185       H  0.19507865  0.95031037  0.89541442     0.14600
N1186       N  0.14925005  0.44849684  0.95489782     0.73700
O1187       O  0.11559407  0.91429483  0.77996027    -0.39800
O1188       O  0.06664505  0.95696789  0.78536014    -0.39700
O1189       O  0.15709823  0.90923282  0.96036852    -0.40400
O1190       O  0.16267724  0.47944291  0.97367761    -0.40500
C1191       C  0.31386523  0.53314483  0.59471007    -0.12800
C1192       C  0.32020666  0.54900767  0.63253189     0.04200
C1193       C  0.35879933  0.56884089  0.64010369    -0.08100
C1194       C  0.38989530  0.56895660  0.61049966    -0.08800
C1195       C  0.38415975  0.54914583  0.57401150    -0.03400
C1196       C  0.34148264  0.03904063  0.56874147     0.03400
N1197       N  0.32770450  0.04507930  0.53050781     0.65900
H1198       H  0.28028815  0.03047902  0.58690018     0.14800
H1199       H  0.41978526  0.58173364  0.61712356     0.14600
N1200       N  0.36733510  0.58930952  0.67687859     0.73700
O1201       O  0.31387989  0.01449907  0.51141070    -0.39800
O1202       O  0.31105505  0.07870148  0.52654685    -0.39700
O1203       O  0.40380999  0.59533302  0.68742846    -0.40400
O1204       O  0.33981739  0.60913070  0.69413532    -0.40500
C1205       C  0.44827138  0.87895259  0.66231298    -0.12800
C1206       C  0.46264291  0.84023454  0.65148334     0.04200
C1207       C  0.47265852  0.83217277  0.61135711    -0.08100
C1208       C  0.46551343  0.86129297  0.58373602    -0.08800
C1209       C  0.45558032  0.90046209  0.59501817    -0.03400
C1210       C  0.44577805  0.90929987  0.63436053     0.03400
N1211       N  0.42826781  0.94727975  0.64472030     0.65900
H1212       H  0.43921072  0.88577605  0.69239184     0.14800
H1213       H  0.95782750  0.85168927  0.55507623     0.14600
N1214       N  0.95708255  0.78927003  0.59786115     0.73700
O1215       O  0.45160747  0.97714376  0.65327210    -0.39800
O1216       O  0.39303066  0.95393063  0.63239588    -0.39700
O1217       O  0.92589288  0.77335069  0.58182599    -0.40400
O1218       O  0.99164838  0.77777013  0.58611618    -0.40500
C1219       C  0.04706524  0.58479072  0.84877515    -0.12800
C1220       C  0.04134492  0.59254099  0.88911524     0.04200
C1221       C  0.54920332  0.62020169  0.89502976    -0.08100
C1222       C  0.53964890  0.65250725  0.87152433    -0.08800
C1223       C  0.04300495  0.65638273  0.83741364    -0.03400
C1224       C  0.04901745  0.61672176  0.82265796     0.03400
N1225       N  0.05817241  0.60808691  0.78229233     0.65900
H1226       H  0.04754102  0.55383513  0.83726104     0.14800
H1227       H  0.53925468  0.68269875  0.88466394     0.14600
N1228       N  0.56964495  0.62716830  0.93195347     0.73700
O1229       O  0.09350238  0.59635762  0.77361757    -0.39800
O1230       O  0.02952398  0.59808271  0.75946755    -0.39700
O1231       O  0.59430640  0.60131365  0.94346967    -0.40400
O1232       O  0.57166892  0.66233987  0.94738531    -0.40500
C1233       C  0.83504141  0.39909767  0.33689923     0.86000
C1234       C  0.81334228  0.37455767  0.37021097    -0.54300
C1235       C  0.83709681  0.35229143  0.39480790     0.08900
C1236       C  0.88463576  0.35806716  0.38192260     0.19800
C1237       C  0.86797818  0.42608750  0.36030365    -0.55000
C1238       C  0.89470548  0.40664596  0.38501550     0.09000
C1239       C  0.86075541  0.36722942  0.31424534    -0.54500
C1240       C  0.88738287  0.34489297  0.33532080     0.09600
H1241       H  0.78049892  0.37505071  0.37406334     0.14100
H1242       H  0.90516182  0.34046411  0.40033132    -0.00200
H1243       H  0.86856068  0.45892964  0.35862209     0.14400
H1244       H  0.85853344  0.36343270  0.28264081     0.14200
C1245       C  0.64075327  0.09744686  0.14484883     0.86000
C1246       C  0.61637226  0.12818179  0.16924746    -0.54300
C1247       C  0.59101775  0.15284677  0.14950719     0.08900
C1248       C  0.59429079  0.14356964  0.10240522     0.19800
C1249       C  0.60778627  0.07362097  0.11961464    -0.55000
C1250       C  0.58248251  0.09557757  0.09633803     0.09000
C1251       C  0.66472469  0.12324574  0.11443542    -0.54500
C1252       C  0.64255207  0.14828457  0.09131643     0.09600
H1253       H  0.61912055  0.12994948  0.20096527     0.14100
H1254       H  0.57500325  0.16351281  0.08505903    -0.00200
H1255       H  0.60519230  0.04070795  0.11971922     0.14400
H1256       H  0.69772266  0.12236724  0.11220370     0.14200
O1257       O  0.52982145  0.46229907  0.42249622    -0.80700
O1258       O  0.96811972  0.47275027  0.08052259    -0.80700
O1259       O  0.57850267  0.49105430  0.50079424    -0.80700
O1260       O  0.92762173  0.42240390  0.45087885    -0.80600
O1261       O  0.53384256  0.47018768  0.04861322    -0.80800
O1262       O  0.94532618  0.46533121  0.40556204    -0.80700
O1263       O  0.94428612  0.42674226  0.03576904    -0.80700
O1264       O  0.57306356  0.49742320  0.46150543    -0.80700
C1265       C  0.56638126  0.47233074  0.43153937     1.09000
C1266       C  0.95492798  0.43695235  0.07084153     1.08900
C1267       C  0.56493241  0.46669310  0.02763692     1.09100
C1268       C  0.92506499  0.43210541  0.41482302     1.08900
O1269       O  0.94631407  0.03748092  0.44810390    -0.80700
O1270       O  0.52364416  0.04518086  0.08410043    -0.80700
O1271       O  0.53103867  0.06150301  0.43886713    -0.80700
O1272       O  0.90660074  0.50066283  0.04245048    -0.80700
O1273       O  0.95411086  0.54949954  0.04680995    -0.80700
O1274       O  0.00050701  0.02482800  0.39149864    -0.80700
O1275       O  0.89410706  0.99679381  0.45916415    -0.80600
O1276       O  0.55073383  0.07138999  0.03093451    -0.80700
Co1277     Co  0.98584816  0.99552298  0.43509746     1.51500
Co1278     Co  0.49419959  0.51315788  0.03809513     1.51700
Co1279     Co  0.53270540  0.02362315  0.48491614     1.51600
Co1280     Co  0.92003419  0.46322031  0.99827720     1.51500
O1281       O  0.98242105  0.48928651  0.49336372    -1.42600
C1282       C  0.90861316  0.03158911  0.45155285     1.09800
C1283       C  0.54968448  0.07096661  0.06929056     1.09000
C1284       C  0.52310966  0.05618621  0.40199707     1.09000
C1285       C  0.90596301  0.03798429  0.04709089     1.09000
O1286       O  0.81179006  0.28687080  0.42717022    -0.80700
O1287       O  0.74014825  0.22367619  0.08741839    -0.80700
O1288       O  0.78697961  0.30820598  0.02853703    -0.80700
O1289       O  0.76944377  0.14790561  0.48647699    -0.80600
O1290       O  0.73973317  0.30656939  0.07504604    -0.80800
O1291       O  0.80545006  0.19785510  0.45649752    -0.80700
O1292       O  0.77951177  0.20963958  0.03704207    -0.80700
O1293       O  0.79382903  0.34400500  0.45639678    -0.80700
C1294       C  0.81482432  0.32653015  0.42871570     1.09000
C1295       C  0.77376410  0.21117948  0.07356954     1.08900
C1296       C  0.77499304  0.31753282  0.06333267     1.09100
C1297       C  0.80028527  0.16062839  0.46657490     1.08900
O1298       O  0.74078822  0.20436676  0.41666400    -0.80700
O1299       O  0.66278522  0.30027390  0.04040647    -0.80700
O1300       O  0.71613406  0.30945556  0.44648688    -0.80700
O1301       O  0.69914368  0.16675737  0.04312417    -0.80700
O1302       O  0.65710248  0.21525127  0.06020609    -0.80700
O1303       O  0.73704376  0.26192459  0.40729924    -0.80700
O1304       O  0.69980865  0.18214365  0.46264528    -0.80600
O1305       O  0.72483605  0.34326311  0.51715861    -0.80700
Co1306     Co  0.76798680  0.24492873  0.45237964     1.51500
Co1307     Co  0.70092907  0.26090810  0.06138271     1.51700
Co1308     Co  0.75917907  0.30343566  0.48723763     1.51600
Co1309     Co  0.73501368  0.19771789  0.00026569     1.51500
O1310       O  0.73080664  0.25252583  0.50479279    -1.42600
C1311       C  0.71060413  0.18230077  0.42671550     1.09000
C1312       C  0.67391821  0.33552036  0.02883851     1.09000
C1313       C  0.71368996  0.29057506  0.41381825     1.09000
C1314       C  0.66651251  0.17789605  0.06230523     1.09000
O1315       O  0.54122084  0.29639130  0.32169022    -0.80700
O1316       O  0.97727902  0.27705239  0.16454108    -0.80700
O1317       O  0.57512660  0.27883912  0.22205257    -0.80700
O1318       O  0.90358451  0.28953836  0.28350961    -0.80600
O1319       O  0.53457540  0.27608935  0.17329977    -0.80800
O1320       O  0.95367271  0.31174060  0.32137616    -0.80700
O1321       O  0.94380711  0.30825624  0.21194713    -0.80700
O1322       O  0.57871994  0.24935896  0.28939044    -0.80700
C1323       C  0.57513209  0.27909679  0.31471008     1.09000
C1324       C  0.95904562  0.30748199  0.17753309     1.08900
C1325       C  0.56858956  0.28811763  0.18764990     1.09100
C1326       C  0.91609429  0.31333111  0.31256444     1.08900
O1327       O  0.93625267  0.22448388  0.32282630    -0.80700
O1328       O  0.53037675  0.19718049  0.16555721    -0.80700
O1329       O  0.51771589  0.18563324  0.26675510    -0.80700
O1330       O  0.89226716  0.24176833  0.20609467    -0.80700
O1331       O  0.94253919  0.20879242  0.17443866    -0.80700
O1332       O  0.01883954  0.21340628  0.32018570    -0.80700
O1333       O  0.92978259  0.20203373  0.26250925    -0.80600
O1334       O  0.57892900  0.19579244  0.21007705    -0.80700
Co1335     Co  0.98721179  0.26073290  0.31509952     1.51500
Co1336     Co  0.50326397  0.23531005  0.20698626     1.51700
Co1337     Co  0.54253457  0.23412337  0.24269871     1.51600
Co1338     Co  0.93715699  0.25626864  0.23924134     1.51500
O1339       O  0.99324133  0.25868626  0.25462759    -1.42600
C1340       C  0.92245819  0.19779274  0.29841154     1.09000
C1341       C  0.56559751  0.18367173  0.17548716     1.09000
C1342       C  0.52420186  0.18433865  0.30301319     1.09000
C1343       C  0.90462640  0.21771330  0.17837342     1.09000
O1344       O  0.80514295  0.46165671  0.30576668    -0.80700
O1345       O  0.74390063  0.03189690  0.14518174    -0.80700
O1346       O  0.79417681  0.44060958  0.21437270    -0.80700
O1347       O  0.76240004  0.10153977  0.25184488    -0.80600
O1348       O  0.75628822  0.44600993  0.16152069    -0.80800
O1349       O  0.79057006  0.04817092  0.28022456    -0.80700
O1350       O  0.78119423  0.04745021  0.19596031    -0.80700
O1351       O  0.77706458  0.40346477  0.28600174    -0.80700
C1352       C  0.80394180  0.42235058  0.30815650     1.09000
C1353       C  0.77742717  0.04483106  0.15928681     1.08900
C1354       C  0.78705249  0.43216895  0.17844700     1.09100
C1355       C  0.78964049  0.08711903  0.27362336     1.08900
O1356       O  0.72802114  0.02686951  0.31439119    -0.80700
O1357       O  0.67446857  0.44648403  0.18656114    -0.80700
O1358       O  0.69677373  0.43881999  0.28504159    -0.80700
O1359       O  0.69838602  0.08397582  0.19225782    -0.80700
O1360       O  0.66087776  0.03199557  0.17061691    -0.80700
O1361       O  0.72504778  0.48295966  0.32434937    -0.80700
O1362       O  0.69297952  0.06434000  0.27422026    -0.80600
O1363       O  0.71463672  0.40288514  0.21567560    -0.80700
Co1364     Co  0.75960157  0.99179292  0.27164429     1.51500
Co1365     Co  0.71480815  0.48799755  0.17116566     1.51700
Co1366     Co  0.74665938  0.44272901  0.25124840     1.51600
Co1367     Co  0.73455668  0.05437575  0.23335280     1.51500
O1368       O  0.72663807  0.49517205  0.23048339    -1.42600
C1369       C  0.70338053  0.05663142  0.30905780     1.09000
C1370       C  0.68323277  0.41049693  0.19484011     1.09000
C1371       C  0.69582427  0.45854884  0.31698897     1.09000
C1372       C  0.66822636  0.06995621  0.17108716     1.09000
C1373       C  0.85071690  0.18244206  0.30556604    -0.12800
C1374       C  0.88981277  0.16755608  0.30846065     0.04200
C1375       C  0.89419065  0.12471874  0.30600647    -0.08100
C1376       C  0.86027736  0.09898890  0.29808281    -0.08800
C1377       C  0.82223730  0.11478706  0.28990125    -0.03400
C1378       C  0.81772922  0.15715127  0.29467089     0.03400
N1379       N  0.78088821  0.17635940  0.28594435     0.65900
H1380       H  0.84656306  0.21502624  0.30643385     0.14800
H1381       H  0.86475037  0.06656611  0.29526275     0.14600
N1382       N  0.93238495  0.10603219  0.31060249     0.73700
O1383       O  0.76496767  0.19725975  0.31316937    -0.39800
O1384       O  0.77533410  0.18636620  0.25095010    -0.39700
O1385       O  0.93916422  0.09065066  0.34338505    -0.40400
O1386       O  0.94868911  0.09019828  0.28040249    -0.40500
C1387       C  0.58778111  0.35286608  0.16043423    -0.12800
C1388       C  0.59870812  0.31378538  0.16778547     0.04200
C1389       C  0.64040538  0.30508989  0.17077813    -0.08100
C1390       C  0.66826113  0.33702538  0.17962388    -0.08800
C1391       C  0.65557863  0.37731257  0.17984264    -0.03400
C1392       C  0.61614858  0.38465849  0.16462051     0.03400
N1393       N  0.60265169  0.42384912  0.15509141     0.65900
H1394       H  0.55614216  0.35944319  0.15514333     0.14800
H1395       H  0.69980328  0.33049828  0.18573840     0.14600
N1396       N  0.65446745  0.26498756  0.16166201     0.73700
O1397       O  0.59207970  0.42890577  0.12011413    -0.39800
O1398       O  0.58547128  0.44453805  0.18179665    -0.39700
O1399       O  0.62994095  0.23826918  0.14803927    -0.40400
O1400       O  0.69205706  0.25975495  0.15660427    -0.40500
C1401       C  0.81803621  0.41201495  0.11588549    -0.12800
C1402       C  0.80991976  0.40161535  0.15485669     0.04200
C1403       C  0.80476901  0.35988148  0.16274734    -0.08100
C1404       C  0.79859611  0.33150329  0.13160094    -0.08800
C1405       C  0.79931366  0.34337014  0.09213162    -0.03400
C1406       C  0.81266946  0.38372261  0.08466883     0.03400
N1407       N  0.81617146  0.39869076  0.04595060     0.65900
H1408       H  0.82255115  0.44377032  0.10899591     0.14800
H1409       H  0.79026234  0.30043788  0.13846505     0.14600
N1410       N  0.80461042  0.34558815  0.20197089     0.73700
O1411       O  0.78660733  0.41777924  0.03285648    -0.39800
O1412       O  0.85151144  0.40751594  0.03336819    -0.39700
O1413       O  0.77161624  0.33216337  0.21659127    -0.40400
O1414       O  0.83765199  0.33286860  0.21498829    -0.40500
C1415       C  0.68425518  0.12533470  0.33149677    -0.12800
C1416       C  0.69219047  0.08550600  0.34202898     0.04200
C1417       C  0.69693568  0.07837248  0.38266293    -0.08100
C1418       C  0.69886253  0.11083425  0.40992713    -0.08800
C1419       C  0.69511488  0.15079207  0.39854328    -0.03400
C1420       C  0.68575366  0.15776452  0.35889866     0.03400
N1421       N  0.67303369  0.19616474  0.34618730     0.65900
H1422       H  0.67827992  0.13194962  0.30111191     0.14800
H1423       H  0.70498936  0.10454207  0.44039275     0.14600
N1424       N  0.69585418  0.03891527  0.39836864     0.73700
O1425       O  0.68730541  0.20886001  0.31413622    -0.39800
O1426       O  0.63752392  0.20630357  0.35587609    -0.39700
O1427       O  0.72847710  0.02609750  0.41212009    -0.40400
O1428       O  0.66279669  0.02804912  0.41467217    -0.40500
C1429       C  0.64177689  0.30138602  0.40326039    -0.12800
C1430       C  0.68044398  0.29790759  0.38657261     0.04200
C1431       C  0.68455173  0.29505458  0.34522033    -0.08100
C1432       C  0.64957482  0.29168757  0.32194059    -0.08800
C1433       C  0.61061763  0.29123314  0.33913893    -0.03400
C1434       C  0.60695345  0.29826480  0.38024817     0.03400
N1435       N  0.56862072  0.29694755  0.40035945     0.65900
H1436       H  0.63825532  0.30304311  0.43493246     0.14800
H1437       H  0.65289523  0.28845628  0.29035830     0.14600
N1438       N  0.72326291  0.29977166  0.32608206     0.73700
O1439       O  0.55006375  0.26313470  0.40299891    -0.39800
O1440       O  0.56162503  0.32412840  0.42608275    -0.39700
O1441       O  0.73529341  0.27216724  0.30277384    -0.40400
O1442       O  0.73621006  0.33549734  0.32055338    -0.40500
C1443       C  0.84739487  0.19854865  0.08415624    -0.12800
C1444       C  0.80750899  0.20014999  0.09963312     0.04200
C1445       C  0.80191392  0.19274972  0.13995085    -0.08100
C1446       C  0.83509105  0.19488103  0.16491288    -0.08800
C1447       C  0.87443550  0.20059232  0.15031071    -0.03400
C1448       C  0.88104851  0.19672140  0.10910056     0.03400
N1449       N  0.91954408  0.18559806  0.09226789     0.65900
H1450       H  0.85252964  0.19867053  0.05272527     0.14800
H1451       H  0.82995309  0.19323859  0.19617839     0.14600
N1452       N  0.76356888  0.18119387  0.15648292     0.73700
O1453       O  0.93061155  0.14964700  0.09679050    -0.39800
O1454       O  0.93273300  0.20372092  0.06231903    -0.39700
O1455       O  0.75866183  0.14460815  0.16598553    -0.40400
O1456       O  0.74478196  0.20775802  0.17610021    -0.40500
C1457       C  0.89498756  0.10236230  0.46990245    -0.12800
C1458       C  0.88233109  0.06661689  0.44978646     0.04200
C1459       C  0.84519253  0.06557292  0.42961602    -0.08100
C1460       C  0.81931732  0.09806059  0.43397801    -0.08800
C1461       C  0.83138886  0.13254610  0.45585270    -0.03400
C1462       C  0.87136157  0.13696557  0.47036437     0.03400
N1463       N  0.88818673  0.17476340  0.48662381     0.65900
H1464       H  0.92349722  0.10324159  0.48553568     0.14800
H1465       H  0.78928069  0.09593289  0.42110212     0.14600
N1466       N  0.83313369  0.03236998  0.40446089     0.73700
O1467       O  0.86589674  0.20125995  0.50245569    -0.39800
O1468       O  0.92630898  0.18064630  0.48769859    -0.39700
O1469       O  0.80946495  0.00529590  0.41801745    -0.40400
O1470       O  0.83351555  0.03795485  0.36794376    -0.40500
C1471       C  0.62030817  0.36129649  0.51751258    -0.12800
C1472       C  0.64486371  0.36830418  0.03319447     0.04200
C1473       C  0.65676383  0.40666139  0.04918643    -0.08100
C1474       C  0.63064163  0.43931499  0.04614478    -0.08800
C1475       C  0.59155720  0.43276064  0.03128927    -0.03400
C1476       C  0.59220198  0.39219386  0.51627228     0.03400
N1477       N  0.55316017  0.38390617  0.49985157     0.65900
H1478       H  0.61173038  0.33116268  0.50639236     0.14800
H1479       H  0.63984084  0.46921852  0.05714517     0.14600
N1480       N  0.69293347  0.41157023  0.07213621     0.73700
O1481       O  0.52313955  0.37954262  0.52274923    -0.39800
O1482       O  0.51142622  0.37161179  0.02736085    -0.39700
O1483       O  0.71107276  0.44575018  0.07471135    -0.40400
O1484       O  0.70050853  0.38517227  0.09707544    -0.40500
C1485       C  0.59062758  0.45110852  0.36547187    -0.12800
C1486       C  0.60045302  0.45840806  0.40511602     0.04200
C1487       C  0.64238896  0.45822299  0.41509735    -0.08100
C1488       C  0.67230850  0.45684483  0.38551555    -0.08800
C1489       C  0.66220855  0.45386808  0.34594298    -0.03400
C1490       C  0.62069949  0.44897166  0.33604609     0.03400
N1491       N  0.60763702  0.44435435  0.29640286     0.65900
H1492       H  0.55907374  0.44975475  0.35650144     0.14800
H1493       H  0.70409656  0.45827046  0.39382928     0.14600
N1494       N  0.64146153  0.93197061  0.44428548     0.73700
O1495       O  0.59767174  0.40908160  0.28410624    -0.39800
O1496       O  0.59144770  0.47425978  0.28086252    -0.39700
O1497       O  0.67417566  0.42326452  0.46219375    -0.40400
O1498       O  0.66561913  0.95383480  0.46477711    -0.40500
C1499       C  0.80267561  0.05948698  0.09227801    -0.12800
C1500       C  0.81188514  0.05594577  0.13191130     0.04200
C1501       C  0.85359014  0.05901640  0.14263766    -0.08100
C1502       C  0.88437069  0.06170027  0.11333060    -0.08800
C1503       C  0.87512043  0.05820266  0.07325463    -0.03400
C1504       C  0.84885682  0.55798286  0.07166346     0.03400
N1505       N  0.83817660  0.56590975  0.03262043     0.65900
H1506       H  0.78618634  0.55349421  0.08791368     0.14800
H1507       H  0.91591617  0.06004013  0.12211303     0.14600
N1508       N  0.86605185  0.05410228  0.18225882     0.73700
O1509       O  0.82520339  0.53636935  0.01167350    -0.39800
O1510       O  0.82465793  0.60065504  0.02675393    -0.39700
O1511       O  0.85911523  0.02047554  0.19824918    -0.40400
O1512       O  0.89351934  0.07757276  0.19625413    -0.40500
C1513       C  0.95106324  0.37979771  0.16609487    -0.12800
C1514       C  0.95672587  0.34075621  0.15109281     0.04200
C1515       C  0.96060437  0.33373546  0.11014979    -0.08100
C1516       C  0.95854798  0.36569662  0.08533927    -0.08800
C1517       C  0.95406535  0.40508480  0.09986534    -0.03400
C1518       C  0.94845637  0.41204558  0.14065182     0.03400
N1519       N  0.93225554  0.44890649  0.15592988     0.65900
H1520       H  0.94649960  0.38493870  0.19735300     0.14800
H1521       H  0.43422034  0.36373828  0.06134478     0.14600
N1522       N  0.44083067  0.30186777  0.10356708     0.73700
O1523       O  0.89645753  0.45713486  0.14634450    -0.39800
O1524       O  0.94604382  0.46369076  0.18779331    -0.39700
O1525       O  0.40300699  0.29438776  0.10157550    -0.40400
O1526       O  0.46413802  0.28358682  0.07976753    -0.40500
C1527       C  0.53562684  0.07711243  0.33383166    -0.12800
C1528       C  0.53901477  0.08576139  0.37423744     0.04200
C1529       C  0.01856720  0.12521311  0.39420423    -0.08100
C1530       C  0.01467153  0.15374683  0.36662603    -0.08800
C1531       C  0.54079343  0.14884063  0.32208397    -0.03400
C1532       C  0.53832482  0.10855983  0.30715074     0.03400
N1533       N  0.53925479  0.09877293  0.26604698     0.65900
H1534       H  0.52913303  0.04641231  0.32308706     0.14800
H1535       H  0.99968615  0.18137172  0.37610766     0.14600
N1536       N  0.99570798  0.13215783  0.42919021     0.73700
O1537       O  0.57364480  0.09222436  0.25071676    -0.39800
O1538       O  0.50839613  0.08189444  0.25025649    -0.39700
O1539       O  0.00872561  0.15928826  0.45304041    -0.40400
O1540       O  0.95778157  0.12767123  0.42547642    -0.40500
C1541       C  0.83034863  0.40172937  0.83696222     0.86000
C1542       C  0.80686517  0.37733634  0.86873366    -0.54300
C1543       C  0.82922253  0.35468120  0.89377916     0.08900
C1544       C  0.87731403  0.36010019  0.88408544     0.19800
C1545       C  0.86233028  0.42814391  0.86192488    -0.55000
C1546       C  0.88738022  0.40784708  0.88754020     0.09000
C1547       C  0.85750698  0.37023464  0.81556332    -0.54500
C1548       C  0.88337664  0.34842916  0.83813787     0.09600
H1549       H  0.77386652  0.37794963  0.87099897     0.14100
H1550       H  0.89656729  0.34220016  0.90348793    -0.00200
H1551       H  0.86473248  0.46076839  0.85948573     0.14400
H1552       H  0.85746204  0.36690786  0.78386334     0.14200
C1553       C  0.64455310  0.10100867  0.64343914     0.86000
C1554       C  0.61775232  0.13060803  0.66697126    -0.54300
C1555       C  0.59110043  0.15337289  0.64638683     0.08900
C1556       C  0.59589657  0.14350133  0.59938664     0.19800
C1557       C  0.61307390  0.07487894  0.61786498    -0.55000
C1558       C  0.58653975  0.09485060  0.59383540     0.09000
C1559       C  0.66728666  0.12733740  0.61327880    -0.54500
C1560       C  0.64434623  0.15049463  0.58931776     0.09600
H1561       H  0.61941150  0.13257444  0.69880003     0.14100
H1562       H  0.57596947  0.16207412  0.58127522    -0.00200
H1563       H  0.61237584  0.04195841  0.61850359     0.14400
H1564       H  0.70039216  0.12815600  0.61175580     0.14200
O1565       O  0.52429325  0.45304248  0.92478930    -0.80700
O1566       O  0.96751876  0.47414012  0.57982221    -0.80700
O1567       O  0.56923092  0.49084025  0.99969510    -0.80700
O1568       O  0.92140048  0.42091190  0.95270150    -0.80600
O1569       O  0.54420956  0.46683006  0.54879152    -0.80800
O1570       O  0.93887105  0.46379182  0.90645657    -0.80700
O1571       O  0.94519918  0.42808945  0.53459233    -0.80700
O1572       O  0.56552372  0.49453787  0.95976127    -0.80700
C1573       C  0.56018608  0.46639073  0.93192788     1.09000
C1574       C  0.95568814  0.43800675  0.56983622     1.08900
C1575       C  0.57488610  0.46481086  0.52715185     1.09100
C1576       C  0.91832579  0.43135695  0.91670725     1.08900
O1577       O  0.94255622  0.04311610  0.94567969    -0.80700
O1578       O  0.52778109  0.04318360  0.58221423    -0.80700
O1579       O  0.52410584  0.06373830  0.94081135    -0.80700
O1580       O  0.90692454  0.50183883  0.53842305    -0.80700
O1581       O  0.95304616  0.55153996  0.54800597    -0.80700
O1582       O  0.99960670  0.02483473  0.89326251    -0.80700
O1583       O  0.88838473  0.00454821  0.95466914    -0.80600
O1584       O  0.55623612  0.06721327  0.52835527    -0.80700
Co1585     Co  0.97943634  0.99739861  0.93655011     1.51500
Co1586     Co  0.50290224  0.50947180  0.54227771     1.51700
Co1587     Co  0.52793202  0.02736554  0.98821170     1.51600
Co1588     Co  0.92345741  0.46564409  0.49552463     1.51500
O1589       O  0.97934573  0.48289584  0.99098555    -1.42600
C1590       C  0.90443864  0.03878092  0.94622034     1.09800
C1591       C  0.55438813  0.06832019  0.56689163     1.09000
C1592       C  0.51545887  0.05821713  0.90397793     1.09000
C1593       C  0.91598768  0.02947794  0.54828494     1.09000
O1594       O  0.80321902  0.28855144  0.92165061    -0.80700
O1595       O  0.74160031  0.21884373  0.58960798    -0.80700
O1596       O  0.79911736  0.30491047  0.53189711    -0.80700
O1597       O  0.76595923  0.15321434  0.98184773    -0.80600
O1598       O  0.75134919  0.30064415  0.57855791    -0.80800
O1599       O  0.79632241  0.20657956  0.95222144    -0.80700
O1600       O  0.78515461  0.20357270  0.54318833    -0.80700
O1601       O  0.78268879  0.34456684  0.95251338    -0.80700
C1602       C  0.80547370  0.32804228  0.92494775     1.09000
C1603       C  0.77632868  0.20686485  0.57931809     1.08900
C1604       C  0.78655931  0.31256306  0.56699636     1.09100
C1605       C  0.79454919  0.16819644  0.96020749     1.08900
O1606       O  0.72947515  0.22082945  0.91842208    -0.80700
O1607       O  0.67539897  0.30170598  0.54050955    -0.80700
O1608       O  0.70364204  0.31251125  0.94377616    -0.80700
O1609       O  0.70254598  0.16631124  0.54365512    -0.80700
O1610       O  0.66177789  0.21666396  0.55670973    -0.80700
O1611       O  0.72667450  0.26179640  0.91089372    -0.80700
O1612       O  0.69372446  0.18390385  0.96105872    -0.80600
O1613       O  0.70943614  0.34363818  0.01413361    -0.80700
Co1614     Co  0.76235775  0.25929181  0.95882149     1.51500
Co1615     Co  0.70883394  0.25924512  0.56188105     1.51700
Co1616     Co  0.74597697  0.30508595  0.98452784     1.51600
Co1617     Co  0.74195020  0.19502669  0.50323594     1.51500
O1618       O  0.71773319  0.25219184  0.00327337    -1.42600
C1619       C  0.70310344  0.19144808  0.92574009     1.09000
C1620       C  0.68858249  0.33659648  0.53011684     1.09000
C1621       C  0.70283455  0.29158477  0.91259561     1.09000
C1622       C  0.66923085  0.17891281  0.56017774     1.09000
O1623       O  0.53472822  0.29997635  0.81158921    -0.80700
O1624       O  0.98685480  0.27853129  0.67483921    -0.80700
O1625       O  0.56695929  0.27871775  0.71601723    -0.80700
O1626       O  0.90357207  0.29620279  0.78731828    -0.80600
O1627       O  0.52570337  0.27427836  0.66820549    -0.80800
O1628       O  0.95133847  0.31671225  0.82886598    -0.80700
O1629       O  0.94503225  0.31221438  0.71505106    -0.80700
O1630       O  0.57305527  0.25146981  0.78333634    -0.80700
C1631       C  0.56873590  0.28249319  0.80693710     1.09000
C1632       C  0.96387038  0.30938902  0.68234668     1.08900
C1633       C  0.55944613  0.28834330  0.68200228     1.09100
C1634       C  0.91436518  0.31862750  0.81747110     1.08900
O1635       O  0.93379060  0.23218146  0.83112476    -0.80700
O1636       O  0.52685512  0.19363001  0.66175339    -0.80700
O1637       O  0.51335939  0.18500201  0.76379109    -0.80700
O1638       O  0.89199813  0.25008946  0.71554813    -0.80700
O1639       O  0.94282731  0.21674682  0.68492154    -0.80700
O1640       O  0.01441786  0.21475131  0.82898117    -0.80700
O1641       O  0.92778544  0.20943259  0.77085521    -0.80600
O1642       O  0.57521824  0.19617985  0.70628089    -0.80700
Co1643     Co  0.98476440  0.26526270  0.82314900     1.51500
Co1644     Co  0.49824159  0.23075868  0.70342840     1.51700
Co1645     Co  0.53647680  0.23327963  0.73787074     1.51600
Co1646     Co  0.93711465  0.26249954  0.74524211     1.51500
O1647       O  0.99094207  0.26594412  0.76236638    -1.42600
C1648       C  0.92034057  0.20584573  0.80693237     1.09000
C1649       C  0.56311577  0.18281558  0.67171465     1.09000
C1650       C  0.51835080  0.18549310  0.80040660     1.09000
C1651       C  0.90441299  0.22582563  0.68855816     1.09000
O1652       O  0.80042258  0.46385714  0.80614012    -0.80700
O1653       O  0.75116442  0.03834670  0.64565093    -0.80700
O1654       O  0.79034957  0.44234785  0.71234653    -0.80700
O1655       O  0.77087177  0.10754117  0.75305939    -0.80600
O1656       O  0.75078869  0.44508427  0.66069831    -0.80800
O1657       O  0.80142871  0.05489124  0.78032827    -0.80700
O1658       O  0.79018753  0.05335082  0.69525772    -0.80700
O1659       O  0.77396770  0.40550165  0.78467596    -0.80700
C1660       C  0.80002449  0.42461695  0.80758481     1.09000
C1661       C  0.78577586  0.04987387  0.65865183     1.08900
C1662       C  0.78327935  0.43373300  0.67644738     1.09100
C1663       C  0.79805873  0.09348888  0.77549394     1.08900
O1664       O  0.73475630  0.04740131  0.81496609    -0.80700
O1665       O  0.66816775  0.44994967  0.68750500    -0.80700
O1666       O  0.69323585  0.44052524  0.78446861    -0.80700
O1667       O  0.70611825  0.09052456  0.68863394    -0.80700
O1668       O  0.66718707  0.03800377  0.67194878    -0.80700
O1669       O  0.71997304  0.48502275  0.82437917    -0.80700
O1670       O  0.69729065  0.07291121  0.76969044    -0.80600
O1671       O  0.70798525  0.40495125  0.71498691    -0.80700
Co1672     Co  0.76053281  0.00773780  0.77949997     1.51500
Co1673     Co  0.71095717  0.48908114  0.67104339     1.51700
Co1674     Co  0.74292522  0.44418896  0.74981239     1.51600
Co1675     Co  0.74191433  0.06113744  0.73118736     1.51500
O1676       O  0.72382161  0.49688451  0.72972421    -1.42600
C1677       C  0.70642759  0.07027100  0.80572364     1.09000
C1678       C  0.67529200  0.41366549  0.69612969     1.09000
C1679       C  0.69125464  0.46025599  0.81645157     1.09000
C1680       C  0.67428559  0.07573729  0.66999965     1.09000
C1681       C  0.84987154  0.18797588  0.81771315    -0.12800
C1682       C  0.88978982  0.17522180  0.81861593     0.04200
C1683       C  0.89731881  0.13323186  0.81660225    -0.08100
C1684       C  0.86616466  0.10632133  0.80403521    -0.08800
C1685       C  0.82754526  0.12078753  0.79560224    -0.03400
C1686       C  0.81857098  0.16093124  0.80709180     0.03400
N1687       N  0.77821128  0.17517100  0.80926500     0.65900
H1688       H  0.84334138  0.21991524  0.82176645     0.14800
H1689       H  0.87235175  0.07427754  0.80019589     0.14600
N1690       N  0.93409499  0.11744502  0.83155564     0.73700
O1691       O  0.76411113  0.18231062  0.84323717    -0.39800
O1692       O  0.76607153  0.19604759  0.78136830    -0.39700
O1693       O  0.94711329  0.13141897  0.86402506    -0.40400
O1694       O  0.94583525  0.08306936  0.81953262    -0.40500
C1695       C  0.57657852  0.35710075  0.66255212    -0.12800
C1696       C  0.58864106  0.31709839  0.66347578     0.04200
C1697       C  0.63105658  0.31000876  0.66619497    -0.08100
C1698       C  0.65851721  0.34174710  0.67638846    -0.08800
C1699       C  0.64530420  0.38142049  0.68197992    -0.03400
C1700       C  0.60409262  0.38923606  0.67168680     0.03400
N1701       N  0.58816328  0.42905245  0.67208239     0.65900
H1702       H  0.54455034  0.36338878  0.65940812     0.14800
H1703       H  0.69032214  0.33503824  0.68043176     0.14600
N1704       N  0.64707962  0.27054585  0.65976569     0.73700
O1705       O  0.58940107  0.44797130  0.64032164    -0.39800
O1706       O  0.56010366  0.43700774  0.69649308    -0.39700
O1707       O  0.66555628  0.26368318  0.62769800    -0.40400
O1708       O  0.65671873  0.25063913  0.68926918    -0.40500
C1709       C  0.81546470  0.41327230  0.61243788    -0.12800
C1710       C  0.80835518  0.40490392  0.65246129     0.04200
C1711       C  0.81083614  0.36397009  0.66355287    -0.08100
C1712       C  0.80906304  0.33266271  0.63474786    -0.08800
C1713       C  0.80888048  0.34112971  0.59467645    -0.03400
C1714       C  0.81752602  0.38135994  0.58400670     0.03400
N1715       N  0.82649802  0.38973866  0.54402360     0.65900
H1716       H  0.81605686  0.44442549  0.60287493     0.14800
H1717       H  0.80514555  0.30160648  0.64380814     0.14600
N1718       N  0.81198300  0.35283464  0.70367348     0.73700
O1719       O  0.86001187  0.37797221  0.52992961    -0.39800
O1720       O  0.79743935  0.39500009  0.52100592    -0.39700
O1721       O  0.77876319  0.34485539  0.72111737    -0.40400
O1722       O  0.84385695  0.33640514  0.71529884    -0.40500
C1723       C  0.68216224  0.13741987  0.82634075    -0.12800
C1724       C  0.69044176  0.09786321  0.83662965     0.04200
C1725       C  0.69282267  0.08932355  0.87708062    -0.08100
C1726       C  0.69190586  0.12076192  0.90515821    -0.08800
C1727       C  0.68940346  0.16127101  0.89467792    -0.03400
C1728       C  0.68091565  0.16891242  0.85482150     0.03400
N1729       N  0.66828192  0.20709012  0.84208623     0.65900
H1730       H  0.67907455  0.14473491  0.79569307     0.14800
H1731       H  0.69690395  0.11328216  0.93551123     0.14600
N1732       N  0.69699733  0.04939579  0.89129044     0.73700
O1733       O  0.69307296  0.22749685  0.82148495    -0.39800
O1734       O  0.63077611  0.20974832  0.83526635    -0.39700
O1735       O  0.73176123  0.03406028  0.89047485    -0.40400
O1736       O  0.67237846  0.03853948  0.91789267    -0.40500
C1737       C  0.63067091  0.28746365  0.89888238    -0.12800
C1738       C  0.66960779  0.29620885  0.88438800     0.04200
C1739       C  0.67389397  0.31006100  0.84536465    -0.08100
C1740       C  0.64023755  0.30664133  0.81996375    -0.08800
C1741       C  0.60186253  0.29418598  0.83417388    -0.03400
C1742       C  0.59678208  0.28865152  0.87490917     0.03400
N1743       N  0.55765891  0.28575642  0.89328282     0.65900
H1744       H  0.62632129  0.28001165  0.92951166     0.14800
H1745       H  0.64409613  0.31350307  0.78913808     0.14600
N1746       N  0.71076123  0.32886728  0.83127043     0.73700
O1747       O  0.54393455  0.25112964  0.90232962    -0.39800
O1748       O  0.54641691  0.31589207  0.91378614    -0.39700
O1749       O  0.74390279  0.31050574  0.83274156    -0.40400
O1750       O  0.70862656  0.35968873  0.81017919    -0.40500
C1751       C  0.84645178  0.18851532  0.59785901    -0.12800
C1752       C  0.80709693  0.19953830  0.60966455     0.04200
C1753       C  0.79987649  0.20820573  0.64997696    -0.08100
C1754       C  0.83244552  0.21226726  0.67534918    -0.08800
C1755       C  0.87272413  0.20879592  0.66195385    -0.03400
C1756       C  0.87954851  0.19370422  0.62331372     0.03400
N1757       N  0.91910346  0.18371802  0.60890816     0.65900
H1758       H  0.85195923  0.17750574  0.56828956     0.14800
H1759       H  0.82585346  0.22080906  0.70565496     0.14600
N1760       N  0.76037027  0.21559506  0.66608797     0.73700
O1761       O  0.93239195  0.14928409  0.61657157    -0.39800
O1762       O  0.93253543  0.20098014  0.57859987    -0.39700
O1763       O  0.74450936  0.18901301  0.68794007    -0.40400
O1764       O  0.75034291  0.25202171  0.67160916    -0.40500
C1765       C  0.89429246  0.11414570  0.94686233    -0.12800
C1766       C  0.87884942  0.07446908  0.93915773     0.04200
C1767       C  0.83842921  0.07006384  0.92607528    -0.08100
C1768       C  0.81184537  0.10214536  0.93070550    -0.08800
C1769       C  0.82570897  0.14023191  0.94424030    -0.03400
C1770       C  0.86837508  0.14765097  0.94647695     0.03400
N1771       N  0.88583087  0.18768063  0.94229929     0.65900
H1772       H  0.92657332  0.11915816  0.95214051     0.14800
H1773       H  0.77983492  0.09700078  0.92436271     0.14600
N1774       N  0.82458522  0.03474745  0.90488324     0.73700
O1775       O  0.91902783  0.19711359  0.95901133    -0.39800
O1776       O  0.87570691  0.20769685  0.91297309    -0.39700
O1777       O  0.80307516  0.00869729  0.92268240    -0.40400
O1778       O  0.82106056  0.03723669  0.86814476    -0.40500
C1779       C  0.60514612  0.36167928  0.01964336    -0.12800
C1780       C  0.65972533  0.36961179  0.53146023     0.04200
C1781       C  0.67016562  0.40922962  0.54535430    -0.08100
C1782       C  0.64150143  0.43960593  0.54495690    -0.08800
C1783       C  0.60301027  0.43154588  0.52991373    -0.03400
C1784       C  0.57826479  0.39362470  0.01907090     0.03400
N1785       N  0.53813817  0.38610535  0.00446318     0.65900
H1786       H  0.59548122  0.33206346  0.00816520     0.14800
H1787       H  0.64972522  0.46995970  0.55557971     0.14600
N1788       N  0.70921587  0.41975112  0.56054134     0.73700
O1789       O  0.53339653  0.38128773  0.96794669    -0.39800
O1790       O  0.54700259  0.39335759  0.46486057    -0.39700
O1791       O  0.73256688  0.44179766  0.53996108    -0.40400
O1792       O  0.71206209  0.42264366  0.59732952    -0.40500
C1793       C  0.58559353  0.46460195  0.86378100    -0.12800
C1794       C  0.59363472  0.45610182  0.90302068     0.04200
C1795       C  0.63333391  0.44264192  0.91150761    -0.08100
C1796       C  0.66433811  0.44375563  0.88260769    -0.08800
C1797       C  0.65649392  0.45517737  0.84430842    -0.03400
C1798       C  0.61596812  0.46363685  0.83457574     0.03400
N1799       N  0.60446620  0.47156704  0.79538696     0.65900
H1800       H  0.55531628  0.47329107  0.85551403     0.14800
H1801       H  0.69478009  0.43462782  0.89003516     0.14600
N1802       N  0.64891893  0.94989801  0.94941677     0.73700
O1803       O  0.58034985  0.44640340  0.77862666    -0.39800
O1804       O  0.60541536  0.50783778  0.78435244    -0.39700
O1805       O  0.64185833  0.38370281  0.94366909    -0.40400
O1806       O  0.66767792  0.97744969  0.96897462    -0.40500
C1807       C  0.81194930  0.04742140  0.59056018    -0.12800
C1808       C  0.82033637  0.05697527  0.62981333     0.04200
C1809       C  0.86119560  0.06916971  0.63920591    -0.08100
C1810       C  0.89280821  0.06348110  0.61086419    -0.08800
C1811       C  0.88410052  0.04997539  0.57236996    -0.03400
C1812       C  0.84547483  0.55223476  0.56773464     0.03400
N1813       N  0.83422700  0.55299900  0.52758885     0.65900
H1814       H  0.78327583  0.54561137  0.58480938     0.14800
H1815       H  0.92427412  0.06842531  0.61915110     0.14600
N1816       N  0.87055375  0.09089075  0.67511501     0.73700
O1817       O  0.82344879  0.51989084  0.51087190    -0.39800
O1818       O  0.81933905  0.58534796  0.51587043    -0.39700
O1819       O  0.90619564  0.09043575  0.68868150    -0.40400
O1820       O  0.84754809  0.11909621  0.68631410    -0.40500
C1821       C  0.95165241  0.38177524  0.66649516    -0.12800
C1822       C  0.96163092  0.34233412  0.65341202     0.04200
C1823       C  0.96902340  0.33565621  0.61264584    -0.08100
C1824       C  0.96338359  0.36663836  0.58650441    -0.08800
C1825       C  0.95575406  0.40600036  0.59947667    -0.03400
C1826       C  0.95034712  0.41375703  0.64003277     0.03400
N1827       N  0.94165146  0.45358682  0.65436561     0.65900
H1828       H  0.94611771  0.38813932  0.69743688     0.14800
H1829       H  0.45640376  0.35274179  0.54930425     0.14600
N1830       N  0.45758991  0.28838281  0.59006563     0.73700
O1831       O  0.97069633  0.47896669  0.65951885    -0.39800
O1832       O  0.90592553  0.46610541  0.65097916    -0.39700
O1833       O  0.42713087  0.27350203  0.57198794    -0.40400
O1834       O  0.49256043  0.27704123  0.57947551    -0.40500
C1835       C  0.52527380  0.07866377  0.83581601    -0.12800
C1836       C  0.52833192  0.08849001  0.87604176     0.04200
C1837       C  0.04597446  0.12411378  0.89677186    -0.08100
C1838       C  0.04261076  0.15519698  0.87073302    -0.08800
C1839       C  0.52984476  0.15018868  0.82236275    -0.03400
C1840       C  0.52561722  0.10951698  0.80865859     0.03400
N1841       N  0.52394933  0.09881022  0.76787139     0.65900
H1842       H  0.51999693  0.04732530  0.82551728     0.14800
H1843       H  0.04475637  0.18566419  0.88264430     0.14600
N1844       N  0.05490091  0.13466784  0.93675538     0.73700
O1845       O  0.55709971  0.09079488  0.75058865    -0.39800
O1846       O  0.49123440  0.08361019  0.75417533    -0.39700
O1847       O  0.09137277  0.14432979  0.94486858    -0.40400
O1848       O  0.02694058  0.14951696  0.95793932    -0.40500
C1849       C  0.83248336  0.90108668  0.33284446     0.86000
C1850       C  0.80964696  0.87661077  0.36484293    -0.54300
C1851       C  0.83254812  0.85352693  0.38909614     0.08900
C1852       C  0.88024422  0.85827131  0.37807916     0.19800
C1853       C  0.86493241  0.92688981  0.35751997    -0.55000
C1854       C  0.89032478  0.90573760  0.38211026     0.09000
C1855       C  0.85917948  0.86944442  0.31028527    -0.54500
C1856       C  0.88553704  0.84699720  0.33192140     0.09600
H1857       H  0.77689919  0.87870255  0.36871569     0.14100
H1858       H  0.89977829  0.84016556  0.39701401    -0.00200
H1859       H  0.86648529  0.95977232  0.35655807     0.14400
H1860       H  0.85902083  0.86695424  0.27863695     0.14200
C1861       C  0.64603791  0.59540688  0.14487770     0.86000
C1862       C  0.62012863  0.62497264  0.16985188    -0.54300
C1863       C  0.59414588  0.64994070  0.15064354     0.08900
C1864       C  0.59824895  0.64244407  0.10352068     0.19800
C1865       C  0.61372119  0.57195553  0.11804718    -0.55000
C1866       C  0.58837765  0.59448989  0.09484915     0.09000
C1867       C  0.66904116  0.62348114  0.11564027    -0.54500
C1868       C  0.64620231  0.64925919  0.09366156     0.09600
H1869       H  0.62304113  0.62605819  0.20139121     0.14100
H1870       H  0.57863999  0.66253406  0.08666123    -0.00200
H1871       H  0.61187308  0.53900401  0.11687451     0.14400
H1872       H  0.70207439  0.62366037  0.11349601     0.14200
O1873       O  0.52452919  0.95687191  0.42003048    -0.80700
O1874       O  0.95560958  0.97477099  0.07755539    -0.80700
O1875       O  0.57749254  0.99052617  0.50057450    -0.80700
O1876       O  0.92278189  0.91633127  0.44782676    -0.80600
O1877       O  0.53273279  0.96695382  0.04719605    -0.80800
O1878       O  0.94214629  0.95997060  0.40311797    -0.80700
O1879       O  0.92921962  0.92866859  0.03401830    -0.80700
O1880       O  0.57072947  0.99826808  0.44618287    -0.80700
C1881       C  0.56152226  0.96887375  0.42287292     1.09000
C1882       C  0.94165800  0.93911397  0.06855580     1.08900
C1883       C  0.56477834  0.96524989  0.02708360     1.09100
C1884       C  0.92074809  0.92784268  0.41220812     1.08900
O1885       O  0.94684535  0.54596706  0.44796734    -0.80700
O1886       O  0.52563963  0.54981530  0.07903907    -0.80700
O1887       O  0.54084042  0.56057858  0.44910881    -0.80700
O1888       O  0.89447811  0.00341781  0.03465409    -0.80700
O1889       O  0.94316814  0.05037137  0.04240533    -0.80700
O1890       O  0.00485262  0.53330449  0.39433275    -0.80700
O1891       O  0.89553882  0.50436261  0.45917788    -0.80600
O1892       O  0.56152920  0.56828084  0.02709849    -0.80700
Co1893     Co  0.98779627  0.50423148  0.43856489     1.51500
Co1894     Co  0.49314127  0.01139295  0.04191922     1.51700
Co1895     Co  0.53082219  0.52762269  0.49975749     1.51600
Co1896     Co  0.91122977  0.96526541  0.99309632     1.51500
O1897       O  0.98129610  0.97704967  0.48737889    -1.42600
C1898       C  0.90910627  0.53922967  0.44946237     1.09800
C1899       C  0.55646287  0.57132617  0.06546472     1.09000
C1900       C  0.53318412  0.55982743  0.41175722     1.09000
C1901       C  0.91843801  0.53546043  0.05475964     1.09000
O1902       O  0.80861259  0.78881394  0.42053878    -0.80700
O1903       O  0.74236697  0.72489119  0.09097569    -0.80700
O1904       O  0.79338580  0.80708019  0.02663609    -0.80700
O1905       O  0.77232276  0.65440592  0.48554916    -0.80600
O1906       O  0.74886728  0.80621333  0.07619948    -0.80800
O1907       O  0.80015046  0.70666944  0.45196057    -0.80700
O1908       O  0.78277084  0.70984083  0.04175402    -0.80700
O1909       O  0.78878165  0.84570132  0.45020822    -0.80700
C1910       C  0.81032525  0.82828207  0.42216514     1.09000
C1911       C  0.77629225  0.71295903  0.07826553     1.08900
C1912       C  0.78355522  0.81649645  0.06184481     1.09100
C1913       C  0.79875493  0.66845890  0.46112483     1.08900
O1914       O  0.73626494  0.72406223  0.41983965    -0.80700
O1915       O  0.66969483  0.80470194  0.04502213    -0.80700
O1916       O  0.70815629  0.81560407  0.44946551    -0.80700
O1917       O  0.70217395  0.66893906  0.04707009    -0.80700
O1918       O  0.66070613  0.71802041  0.06414154    -0.80700
O1919       O  0.73025928  0.76530122  0.41522685    -0.80700
O1920       O  0.70249747  0.68667270  0.46322651    -0.80600
O1921       O  0.72144800  0.84863729  0.51789697    -0.80700
Co1922     Co  0.76940054  0.76152195  0.46012879     1.51500
Co1923     Co  0.70616679  0.76317344  0.06477839     1.51700
Co1924     Co  0.75362583  0.80790969  0.48607021     1.51600
Co1925     Co  0.73809047  0.69829172  0.00437138     1.51500
O1926       O  0.72645786  0.75487392  0.50629708    -1.42600
C1927       C  0.71177217  0.69351823  0.42766515     1.09000
C1928       C  0.68173605  0.83988034  0.03393929     1.09000
C1929       C  0.70583583  0.79443355  0.41869348     1.09000
C1930       C  0.66965349  0.68021780  0.06581534     1.09000
O1931       O  0.53947368  0.79764526  0.31766347    -0.80700
O1932       O  0.97796471  0.78202782  0.16379654    -0.80700
O1933       O  0.57155734  0.77657622  0.22047139    -0.80700
O1934       O  0.90689851  0.79369317  0.28143196    -0.80600
O1935       O  0.52967681  0.77338084  0.17256147    -0.80800
O1936       O  0.95485390  0.81784852  0.32034388    -0.80700
O1937       O  0.95007368  0.81583128  0.21288411    -0.80700
O1938       O  0.57906196  0.75022932  0.28885879    -0.80700
C1939       C  0.57359276  0.78042342  0.31326102     1.09000
C1940       C  0.96126395  0.81342759  0.17721773     1.08900
C1941       C  0.56275222  0.78748479  0.18711314     1.09100
C1942       C  0.91730057  0.81782353  0.31052701     1.08900
O1943       O  0.93727102  0.73128911  0.31995448    -0.80700
O1944       O  0.53188618  0.69277503  0.16611144    -0.80700
O1945       O  0.52275460  0.68238776  0.27191994    -0.80700
O1946       O  0.89778941  0.75138940  0.20676488    -0.80700
O1947       O  0.94521168  0.71333763  0.17695152    -0.80700
O1948       O  0.01751509  0.71773186  0.32206707    -0.80700
O1949       O  0.93618123  0.70870480  0.25945953    -0.80600
O1950       O  0.58065784  0.69360600  0.21081766    -0.80700
Co1951     Co  0.98846110  0.76632811  0.31539675     1.51500
Co1952     Co  0.50253328  0.73079065  0.20656430     1.51700
Co1953     Co  0.54303217  0.73098763  0.24347975     1.51600
Co1954     Co  0.94303360  0.76333101  0.23827015     1.51500
O1955       O  0.99763196  0.76432364  0.25529650    -1.42600
C1956       C  0.92693354  0.70411697  0.29475078     1.09000
C1957       C  0.56773318  0.68058055  0.17633086     1.09000
C1958       C  0.52792573  0.68473548  0.30869436     1.09000
C1959       C  0.90801284  0.72461948  0.18099942     1.09000
O1960       O  0.79960924  0.96497176  0.30836152    -0.80700
O1961       O  0.75497108  0.52827588  0.14877968    -0.80700
O1962       O  0.78686159  0.94539774  0.20588569    -0.80700
O1963       O  0.77023460  0.60124812  0.25327625    -0.80600
O1964       O  0.74587021  0.94916697  0.15549835    -0.80800
O1965       O  0.80332715  0.55006009  0.28003909    -0.80700
O1966       O  0.79028292  0.54392256  0.20061476    -0.80700
O1967       O  0.77706066  0.90767666  0.27957854    -0.80700
C1968       C  0.80166828  0.92564514  0.30539706     1.09000
C1969       C  0.78833160  0.54019242  0.16406144     1.08900
C1970       C  0.77833189  0.93661959  0.17025338     1.09100
C1971       C  0.79988115  0.58836606  0.27325688     1.08900
O1972       O  0.73922942  0.54140949  0.32007313    -0.80700
O1973       O  0.66468498  0.95104932  0.18547840    -0.80700
O1974       O  0.69411142  0.93593218  0.28142748    -0.80700
O1975       O  0.70579995  0.58153540  0.19207904    -0.80700
O1976       O  0.66966575  0.52894677  0.16967229    -0.80700
O1977       O  0.71939158  0.98480770  0.31675930    -0.80700
O1978       O  0.69894589  0.56538981  0.27595080    -0.80600
O1979       O  0.70689913  0.90668467  0.21086128    -0.80700
Co1980     Co  0.76281696  0.50185309  0.28241563     1.51500
Co1981     Co  0.70485630  0.99135588  0.16851197     1.51700
Co1982     Co  0.74129760  0.94527416  0.24561741     1.51600
Co1983     Co  0.74193562  0.55290277  0.23541657     1.51500
O1984       O  0.71697805  0.99888025  0.22732636    -1.42600
C1985       C  0.71060474  0.56445629  0.31166487     1.09000
C1986       C  0.67350693  0.91517767  0.19318451     1.09000
C1987       C  0.69200582  0.95718389  0.31210908     1.09000
C1988       C  0.67553946  0.56736096  0.17065639     1.09000
C1989       C  0.85726713  0.68372936  0.30772017    -0.12800
C1990       C  0.89726821  0.67158857  0.30324126     0.04200
C1991       C  0.90477720  0.63020721  0.29478922    -0.08100
C1992       C  0.87220894  0.60290570  0.28807969    -0.08800
C1993       C  0.83230704  0.61653057  0.28733753    -0.03400
C1994       C  0.82498067  0.65675476  0.29962089     0.03400
N1995       N  0.78517776  0.67076795  0.30656608     0.65900
H1996       H  0.85088733  0.71527533  0.31451112     0.14800
H1997       H  0.87858345  0.57154337  0.28067120     0.14600
N1998       N  0.94495084  0.61521818  0.29123732     0.73700
O1999       O  0.77512298  0.67641666  0.34206002    -0.39800
O2000       O  0.77002471  0.69276728  0.28099601    -0.39700
O2001       O  0.95683839  0.59217032  0.31759859    -0.40400
O2002       O  0.96028095  0.61154513  0.25725347    -0.40500
C2003       C  0.57587076  0.85636105  0.16606838    -0.12800
C2004       C  0.58988166  0.81719528  0.16921792     0.04200
C2005       C  0.63214821  0.81099359  0.17122256    -0.08100
C2006       C  0.65887366  0.84374701  0.17681119    -0.08800
C2007       C  0.64446645  0.88295977  0.17990553    -0.03400
C2008       C  0.60284801  0.88957123  0.17039115     0.03400
N2009       N  0.58670249  0.92891063  0.16523692     0.65900
H2010       H  0.54353512  0.86146791  0.16396813     0.14800
H2011       H  0.69087303  0.83804220  0.18083332     0.14600
N2012       N  0.64826401  0.77134946  0.17263591     0.73700
O2013       O  0.58119006  0.93978560  0.13045685    -0.39800
O2014       O  0.56393138  0.94332541  0.19193255    -0.39700
O2015       O  0.66348879  0.75651487  0.14148619    -0.40400
O2016       O  0.66081482  0.75936917  0.20516216    -0.40500
C2017       C  0.80961424  0.91664388  0.10532298    -0.12800
C2018       C  0.80207195  0.90724802  0.14513350     0.04200
C2019       C  0.80501468  0.86597827  0.15546914    -0.08100
C2020       C  0.80954527  0.83561256  0.12639128    -0.08800
C2021       C  0.80876967  0.84464412  0.08671015    -0.03400
C2022       C  0.81401225  0.88552645  0.07618014     0.03400
N2023       N  0.81919569  0.89539580  0.03564522     0.65900
H2024       H  0.80863631  0.94791611  0.09643520     0.14800
H2025       H  0.80707712  0.80412989  0.13477280     0.14600
N2026       N  0.79938933  0.85293738  0.19469371     0.73700
O2027       O  0.84187736  0.87415776  0.01359990    -0.39800
O2028       O  0.79768007  0.92206937  0.02075582    -0.39700
O2029       O  0.76961653  0.82914977  0.20191009    -0.40400
O2030       O  0.83098688  0.85035000  0.21500583    -0.40500
C2031       C  0.69224325  0.63434943  0.32990974    -0.12800
C2032       C  0.69798823  0.59487984  0.34204548     0.04200
C2033       C  0.70173463  0.58879277  0.38288193    -0.08100
C2034       C  0.70332584  0.62177476  0.40930063    -0.08800
C2035       C  0.70049934  0.66171567  0.39713366    -0.03400
C2036       C  0.69224570  0.66743368  0.35680695     0.03400
N2037       N  0.68194271  0.70550504  0.34179589     0.65900
H2038       H  0.68939418  0.64015599  0.29888822     0.14800
H2039       H  0.70729679  0.61559071  0.44013056     0.14600
N2040       N  0.69634698  0.55002971  0.39961314     0.73700
O2041       O  0.70991600  0.72654927  0.32603115    -0.39800
O2042       O  0.64628969  0.70810112  0.32879772    -0.39700
O2043       O  0.72550213  0.53624280  0.41863734    -0.40400
O2044       O  0.66058441  0.54163766  0.41117944    -0.40500
C2045       C  0.63339518  0.79833327  0.40617749    -0.12800
C2046       C  0.67285646  0.80004561  0.39091065     0.04200
C2047       C  0.67892474  0.80523805  0.35021714    -0.08100
C2048       C  0.64556315  0.80009022  0.32503464    -0.08800
C2049       C  0.60632712  0.79308804  0.34021965    -0.03400
C2050       C  0.59986230  0.79497206  0.38152224     0.03400
N2051       N  0.56023569  0.79087205  0.39940277     0.65900
H2052       H  0.62866716  0.79756678  0.43774395     0.14800
H2053       H  0.65035640  0.80095457  0.29352174     0.14600
N2054       N  0.71739848  0.81869597  0.33426239     0.73700
O2055       O  0.55590992  0.76921342  0.42933311    -0.39800
O2056       O  0.53424040  0.81753725  0.39355077    -0.39700
O2057       O  0.71816875  0.84478990  0.30774098    -0.40400
O2058       O  0.75040071  0.80908039  0.34967682    -0.40500
C2059       C  0.84783791  0.69557824  0.09134908    -0.12800
C2060       C  0.80888789  0.70442305  0.10609416     0.04200
C2061       C  0.80317544  0.70730623  0.14726899    -0.08100
C2062       C  0.83661305  0.70954382  0.17147499    -0.08800
C2063       C  0.87588332  0.70730000  0.15607940    -0.03400
C2064       C  0.88139381  0.69572887  0.11624081     0.03400
N2065       N  0.91893871  0.68039860  0.10127026     0.65900
H2066       H  0.85233162  0.68888110  0.06045869     0.14800
H2067       H  0.83166198  0.71507315  0.20266838     0.14600
N2068       N  0.76417759  0.70825146  0.16588407     0.73700
O2069       O  0.92239288  0.64236316  0.09961217    -0.39800
O2070       O  0.93960847  0.70134091  0.07741117    -0.39700
O2071       O  0.75338435  0.67787558  0.18572104    -0.40400
O2072       O  0.75065013  0.74245811  0.17604400    -0.40500
C2073       C  0.89676438  0.61352820  0.44915721    -0.12800
C2074       C  0.88184215  0.57371066  0.44182452     0.04200
C2075       C  0.84151136  0.56883579  0.42828135    -0.08100
C2076       C  0.81500263  0.60152537  0.43109196    -0.08800
C2077       C  0.82884834  0.64001097  0.44426674    -0.03400
C2078       C  0.87115182  0.64682394  0.44843256     0.03400
N2079       N  0.88878445  0.68673822  0.45247630     0.65900
H2080       H  0.92836512  0.61886530  0.45689522     0.14800
H2081       H  0.78313274  0.59642967  0.42434473     0.14600
N2082       N  0.82759249  0.53218358  0.40928885     0.73700
O2083       O  0.89929553  0.69952433  0.48617666    -0.39800
O2084       O  0.90634990  0.70175638  0.42281679    -0.39700
O2085       O  0.80389056  0.50861478  0.42779034    -0.40400
O2086       O  0.82696614  0.53106526  0.37222362    -0.40500
C2087       C  0.61708324  0.86187229  0.52523385    -0.12800
C2088       C  0.65197853  0.87230895  0.03468230     0.04200
C2089       C  0.66011442  0.91203822  0.04961352    -0.08100
C2090       C  0.63037299  0.94131573  0.04737106    -0.08800
C2091       C  0.59291181  0.93198072  0.03018346    -0.03400
C2092       C  0.58761498  0.89069815  0.52103173     0.03400
N2093       N  0.55045188  0.87758138  0.50295689     0.65900
H2094       H  0.60988162  0.83073043  0.51623903     0.14800
H2095       H  0.63631795  0.97147340  0.05964906     0.14600
N2096       N  0.69614203  0.92225292  0.07097988     0.73700
O2097       O  0.54870125  0.87862448  0.46600242    -0.39800
O2098       O  0.53525529  0.84661268  0.99073389    -0.39700
O2099       O  0.71431984  0.95583932  0.06504078    -0.40400
O2100       O  0.70079962  0.90543060  0.10337534    -0.40500
C2101       C  0.58546900  0.96094218  0.35475491    -0.12800
C2102       C  0.59283042  0.95507557  0.39464656     0.04200
C2103       C  0.63263878  0.94508075  0.40602455    -0.08100
C2104       C  0.66453528  0.94497280  0.37855609    -0.08800
C2105       C  0.65738259  0.95294570  0.33950053    -0.03400
C2106       C  0.61720172  0.95816267  0.32711607     0.03400
N2107       N  0.60831646  0.95839126  0.28633960     0.65900
H2108       H  0.55528846  0.96860055  0.34509861     0.14800
H2109       H  0.69513295  0.93847333  0.38784526     0.14600
N2110       N  0.65637236  0.45549347  0.45426842     0.73700
O2111       O  0.61762304  0.98954925  0.26707442    -0.39800
O2112       O  0.60449667  0.92456187  0.26839812    -0.39700
O2113       O  0.64134022  0.89409446  0.44872593    -0.40400
O2114       O  0.66737533  0.48778986  0.47229950    -0.40500
C2115       C  0.81712828  0.55356172  0.09865706    -0.12800
C2116       C  0.82449479  0.54947849  0.13845098     0.04200
C2117       C  0.86568129  0.55367615  0.15107013    -0.08100
C2118       C  0.89781871  0.55421343  0.12308258    -0.08800
C2119       C  0.88974056  0.55491266  0.08279681    -0.03400
C2120       C  0.83297332  0.05810715  0.06310538     0.03400
N2121       N  0.81893976  0.05034407  0.02406655     0.65900
H2122       H  0.77112014  0.05828276  0.08313868     0.14800
H2123       H  0.92895994  0.55203954  0.13286383     0.14600
N2124       N  0.87604537  0.55869802  0.19143036     0.73700
O2125       O  0.81271837  0.01373297  0.01351756    -0.39800
O2126       O  0.79653726  0.07655601  0.00964476    -0.39700
O2127       O  0.87994945  0.52755226  0.21169045    -0.40400
O2128       O  0.89457312  0.59117836  0.20187516    -0.40500
C2129       C  0.95366211  0.88522351  0.16424922    -0.12800
C2130       C  0.95459980  0.84541233  0.15014345     0.04200
C2131       C  0.94861860  0.83640162  0.10986227    -0.08100
C2132       C  0.94406554  0.86755787  0.08419609    -0.08800
C2133       C  0.94303435  0.90768617  0.09798180    -0.03400
C2134       C  0.94624670  0.91630932  0.13873006     0.03400
N2135       N  0.93419432  0.95399591  0.15567492     0.65900
H2136       H  0.95639673  0.89200937  0.19543930     0.14800
H2137       H  0.46343905  0.86072575  0.05320919     0.14600
N2138       N  0.44402651  0.79836762  0.09375524     0.73700
O2139       O  0.89647428  0.95838336  0.16094834    -0.39800
O2140       O  0.95860462  0.97302046  0.17831403    -0.39700
O2141       O  0.40569648  0.79358463  0.09421494    -0.40400
O2142       O  0.46360308  0.78242598  0.06550726    -0.40500
C2143       C  0.55312164  0.58159923  0.34625747    -0.12800
C2144       C  0.55113526  0.59091968  0.38651222     0.04200
C2145       C  0.04144633  0.63537782  0.39682303    -0.08100
C2146       C  0.04346155  0.66524141  0.36976755    -0.08800
C2147       C  0.54455392  0.65219421  0.33256530    -0.03400
C2148       C  0.55256568  0.61244907  0.31890700     0.03400
N2149       N  0.56669888  0.60431010  0.27974397     0.65900
H2150       H  0.55445532  0.55019116  0.33631426     0.14800
H2151       H  0.04118542  0.69625808  0.38090835     0.14600
N2152       N  0.03452731  0.64678526  0.43706590     0.73700
O2153       O  0.59084558  0.62996248  0.26460668    -0.39800
O2154       O  0.56665036  0.56821116  0.26634826    -0.39700
O2155       O  0.99848935  0.64743065  0.45024370    -0.40400
O2156       O  0.06377480  0.64665520  0.46079542    -0.40500
C2157       C  0.82674210  0.90083445  0.83503132     0.86000
C2158       C  0.80329165  0.87673459  0.86783373    -0.54300
C2159       C  0.82589367  0.85459931  0.89370067     0.08900
C2160       C  0.87356875  0.85954777  0.88298495     0.19800
C2161       C  0.85862976  0.92731709  0.85960111    -0.55000
C2162       C  0.88361602  0.90715807  0.88514329     0.09000
C2163       C  0.85367559  0.86840431  0.81422006    -0.54500
C2164       C  0.87914545  0.84659328  0.83740644     0.09600
H2165       H  0.77055205  0.87813396  0.87101679     0.14100
H2166       H  0.89310269  0.84227813  0.90267366    -0.00200
H2167       H  0.86025802  0.96013789  0.85770294     0.14400
H2168       H  0.85375185  0.86435362  0.78258805     0.14200
C2169       C  0.64963193  0.59999024  0.64668062     0.86000
C2170       C  0.62358692  0.62970429  0.67195858    -0.54300
C2171       C  0.59676413  0.65402789  0.65289643     0.08900
C2172       C  0.60125618  0.64546047  0.60530813     0.19800
C2173       C  0.61803550  0.57568059  0.62094947    -0.55000
C2174       C  0.59246347  0.59691888  0.59788041     0.09000
C2175       C  0.67248503  0.62753765  0.61686863    -0.54500
C2176       C  0.64940394  0.65248833  0.59439005     0.09600
H2177       H  0.62595937  0.63059438  0.70370182     0.14100
H2178       H  0.58111944  0.66451424  0.58789855    -0.00200
H2179       H  0.61703165  0.54270639  0.61989300     0.14400
H2180       H  0.70550558  0.62761536  0.61434547     0.14200
O2181       O  0.52605419  0.96363419  0.92229227    -0.80700
O2182       O  0.96760955  0.96668980  0.57583219    -0.80700
O2183       O  0.57269796  0.99328990  0.00407802    -0.80700
O2184       O  0.91494177  0.92111140  0.95032891    -0.80600
O2185       O  0.53731355  0.96611183  0.54485898    -0.80800
O2186       O  0.93526031  0.96250844  0.90425145    -0.80700
O2187       O  0.94341014  0.91997851  0.53167661    -0.80700
O2188       O  0.56949102  0.00618582  0.95157339    -0.80700
C2189       C  0.56267455  0.97732099  0.92724039     1.09000
C2190       C  0.95361812  0.93085550  0.56674170     1.08900
C2191       C  0.56931039  0.96392679  0.52502404     1.09100
C2192       C  0.91378094  0.93067968  0.91426293     1.08900
O2193       O  0.94172726  0.54160103  0.94859277    -0.80700
O2194       O  0.53482700  0.54589444  0.58305716    -0.80700
O2195       O  0.53029370  0.55326129  0.94248788    -0.80700
O2196       O  0.90675827  0.99341296  0.53845247    -0.80700
O2197       O  0.95175750  0.04401531  0.54141213    -0.80700
O2198       O  0.00127157  0.53260681  0.89664665    -0.80700
O2199       O  0.89055708  0.50066554  0.96331406    -0.80600
O2200       O  0.56844696  0.56885236  0.53105806    -0.80700
Co2201     Co  0.98222015  0.50037653  0.93814976     1.51500
Co2202     Co  0.49648001  0.00857096  0.54076211     1.51700
Co2203     Co  0.52211063  0.52657806  0.99652363     1.51600
Co2204     Co  0.92134986  0.95763817  0.49376981     1.51500
O2205       O  0.97208196  0.98133969  0.98927636    -1.42600
C2206       C  0.90399914  0.53458336  0.95151018     1.09800
C2207       C  0.56297104  0.57086302  0.56918888     1.09000
C2208       C  0.52543605  0.54916039  0.90466649     1.09000
C2209       C  0.91711131  0.53642191  0.55216999     1.09000
O2210       O  0.80355657  0.79034560  0.92865802    -0.80700
O2211       O  0.74527160  0.72620886  0.59032458    -0.80700
O2212       O  0.79711053  0.81023110  0.52717778    -0.80700
O2213       O  0.76630397  0.65133928  0.98751813    -0.80600
O2214       O  0.75252072  0.80776477  0.57645981    -0.80800
O2215       O  0.80127096  0.70159830  0.95757614    -0.80700
O2216       O  0.78739208  0.71021640  0.54285770    -0.80700
O2217       O  0.78086585  0.84750055  0.95408529    -0.80700
C2218       C  0.80355014  0.82987504  0.92785213     1.09000
C2219       C  0.77952106  0.71393541  0.57916140     1.08900
C2220       C  0.78670887  0.81960376  0.56246557     1.09100
C2221       C  0.79601092  0.66374133  0.96589541     1.08900
O2222       O  0.73482619  0.70784414  0.91912103    -0.80700
O2223       O  0.67456145  0.80604732  0.54415318    -0.80700
O2224       O  0.70355060  0.81136503  0.95118606    -0.80700
O2225       O  0.70507505  0.67041157  0.54546728    -0.80700
O2226       O  0.66450322  0.72025547  0.56351293    -0.80700
O2227       O  0.72775128  0.76580667  0.91147875    -0.80700
O2228       O  0.69530572  0.68270379  0.96497464    -0.80600
O2229       O  0.71733966  0.84678569  0.01943287    -0.80700
Co2230     Co  0.76156235  0.74816235  0.95482482     1.51500
Co2231     Co  0.71010265  0.76473950  0.56418817     1.51700
Co2232     Co  0.74942902  0.80649121  0.98705886     1.51600
Co2233     Co  0.74327313  0.70001998  0.50375135     1.51500
O2234       O  0.72401396  0.75506382  0.00676532    -1.42600
C2235       C  0.70554408  0.68453381  0.92888510     1.09000
C2236       C  0.68647474  0.84141067  0.53369357     1.09000
C2237       C  0.70198489  0.79228111  0.91899386     1.09000
C2238       C  0.67292454  0.68234438  0.56502659     1.09000
O2239       O  0.53187817  0.79349634  0.82552971    -0.80700
O2240       O  0.97127487  0.77739591  0.67217333    -0.80700
O2241       O  0.56856802  0.77995647  0.73090519    -0.80700
O2242       O  0.90104307  0.79121422  0.78998819    -0.80600
O2243       O  0.53073643  0.77576084  0.68051305    -0.80800
O2244       O  0.94787033  0.81728694  0.82901122    -0.80700
O2245       O  0.94074202  0.81219249  0.71865176    -0.80700
O2246       O  0.57120498  0.74615701  0.79614476    -0.80700
C2247       C  0.56540666  0.77532910  0.82136004     1.09000
C2248       C  0.95322907  0.80880626  0.68326025     1.08900
C2249       C  0.56131562  0.79229708  0.69776997     1.09100
C2250       C  0.91083102  0.81654746  0.81816615     1.08900
O2251       O  0.93564628  0.72971520  0.83219178    -0.80700
O2252       O  0.53189136  0.69434221  0.66941470    -0.80700
O2253       O  0.51595632  0.68172628  0.77187920    -0.80700
O2254       O  0.89153740  0.74475275  0.71919829    -0.80700
O2255       O  0.94027983  0.70915419  0.68897683    -0.80700
O2256       O  0.01911261  0.72166355  0.83360601    -0.80700
O2257       O  0.93461904  0.70664339  0.77191062    -0.80600
O2258       O  0.57920509  0.69592171  0.71491039    -0.80700
Co2259     Co  0.98437045  0.76809321  0.82518134     1.51500
Co2260     Co  0.50141028  0.73061328  0.71121630     1.51700
Co2261     Co  0.53855010  0.73172301  0.74787665     1.51600
Co2262     Co  0.93754189  0.76055759  0.74789869     1.51500
O2263       O  0.99219266  0.76593036  0.76461120    -1.42600
C2264       C  0.92483103  0.70251177  0.80717481     1.09000
C2265       C  0.56810502  0.68319144  0.67956484     1.09000
C2266       C  0.51767828  0.68123592  0.80907667     1.09000
C2267       C  0.90266815  0.71898608  0.69294536     1.09000
O2268       O  0.80028612  0.96519975  0.80373131    -0.80700
O2269       O  0.75273174  0.52671985  0.64751806    -0.80700
O2270       O  0.79054704  0.94685754  0.70809082    -0.80700
O2271       O  0.77279563  0.60146371  0.74921751    -0.80600
O2272       O  0.75234984  0.95612994  0.65601184    -0.80800
O2273       O  0.79966107  0.55114375  0.78263022    -0.80700
O2274       O  0.79031040  0.53998574  0.69850920    -0.80700
O2275       O  0.77177547  0.90847685  0.78102858    -0.80700
C2276       C  0.79793881  0.92574912  0.80501042     1.09000
C2277       C  0.78702531  0.53679807  0.66190766     1.08900
C2278       C  0.78378774  0.94199576  0.67131982     1.09100
C2279       C  0.79873589  0.58904327  0.77352230     1.08900
O2280       O  0.73273644  0.54244663  0.81787205    -0.80700
O2281       O  0.66951792  0.95767349  0.68409721    -0.80700
O2282       O  0.69371851  0.94871634  0.78175559    -0.80700
O2283       O  0.71039018  0.58349095  0.68954402    -0.80700
O2284       O  0.66911994  0.53300211  0.67155147    -0.80700
O2285       O  0.72326331  0.99050899  0.82208438    -0.80700
O2286       O  0.69927694  0.57047601  0.77098191    -0.80600
O2287       O  0.70885921  0.91324313  0.71281324    -0.80700
Co2288     Co  0.75837370  0.50341380  0.78234287     1.51500
Co2289     Co  0.71127793  0.99770135  0.66856069     1.51700
Co2290     Co  0.74387065  0.95053092  0.74699997     1.51600
Co2291     Co  0.74306044  0.55359574  0.73296978     1.51500
O2292       O  0.72600793  0.00348694  0.72666929    -1.42600
C2293       C  0.70653889  0.56704005  0.80743708     1.09000
C2294       C  0.67573734  0.92232499  0.69547765     1.09000
C2295       C  0.69302338  0.96810367  0.81398971     1.09000
C2296       C  0.67802063  0.57092518  0.67100037     1.09000
C2297       C  0.85347089  0.68454362  0.81277303    -0.12800
C2298       C  0.89327395  0.67112406  0.81511284     0.04200
C2299       C  0.89998778  0.62910017  0.80937770    -0.08100
C2300       C  0.86778357  0.60255797  0.79905992    -0.08800
C2301       C  0.82941937  0.61730672  0.79101010    -0.03400
C2302       C  0.82195063  0.65847467  0.79971502     0.03400
N2303       N  0.78306756  0.67527811  0.79454501     0.65900
H2304       H  0.84760698  0.71668394  0.81626929     0.14800
H2305       H  0.87405559  0.57074701  0.79356272     0.14600
N2306       N  0.93958293  0.61283178  0.80907467     0.73700
O2307       O  0.76598331  0.69054827  0.82450830    -0.39800
O2308       O  0.77492109  0.68895275  0.76137434    -0.39700
O2309       O  0.95052022  0.59483248  0.83932474    -0.40400
O2310       O  0.95335410  0.60091264  0.77620530    -0.40500
C2311       C  0.57395976  0.86429907  0.68212214    -0.12800
C2312       C  0.58795585  0.82461933  0.68231380     0.04200
C2313       C  0.63025797  0.81827687  0.68127399    -0.08100
C2314       C  0.65763993  0.85099264  0.68374963    -0.08800
C2315       C  0.64419663  0.89056657  0.68714237    -0.03400
C2316       C  0.60162931  0.89761373  0.68355970     0.03400
N2317       N  0.58555473  0.93751447  0.68138888     0.65900
H2318       H  0.54153383  0.86945010  0.68309741     0.14800
H2319       H  0.69000101  0.84514901  0.68385125     0.14600
N2320       N  0.64612131  0.77834976  0.67963284     0.73700
O2321       O  0.59032147  0.95620675  0.64971237    -0.39800
O2322       O  0.55599524  0.94690723  0.70354277    -0.39700
O2323       O  0.63787309  0.75542469  0.65044499    -0.40400
O2324       O  0.67577465  0.77020411  0.70111500    -0.40500
C2325       C  0.81113868  0.92235067  0.60427010    -0.12800
C2326       C  0.80784795  0.91417729  0.64492459     0.04200
C2327       C  0.81420922  0.87389017  0.65602821    -0.08100
C2328       C  0.81328854  0.84214294  0.62769958    -0.08800
C2329       C  0.80994325  0.84978610  0.58764098    -0.03400
C2330       C  0.81434463  0.89026466  0.57597776     0.03400
N2331       N  0.81985521  0.89834684  0.53528486     0.65900
H2332       H  0.80840013  0.95316737  0.59441296     0.14800
H2333       H  0.81191810  0.81107805  0.63735879     0.14600
N2334       N  0.81833270  0.86365850  0.69607862     0.73700
O2335       O  0.85253818  0.88736324  0.51885766    -0.39800
O2336       O  0.78889810  0.90197101  0.51428571    -0.39700
O2337       O  0.78857443  0.84628290  0.71303908    -0.40400
O2338       O  0.85381543  0.85743786  0.70801705    -0.40500
C2339       C  0.68721367  0.63539810  0.82921852    -0.12800
C2340       C  0.69092574  0.59488198  0.83817920     0.04200
C2341       C  0.69049102  0.58424596  0.87819644    -0.08100
C2342       C  0.69170114  0.61417116  0.90790780    -0.08800
C2343       C  0.69016384  0.65498943  0.89890903    -0.03400
C2344       C  0.68512307  0.66506394  0.85914916     0.03400
N2345       N  0.67131642  0.70349563  0.84856814     0.65900
H2346       H  0.68636216  0.64436703  0.79883152     0.14800
H2347       H  0.69436900  0.60529930  0.93817069     0.14600
N2348       N  0.68225143  0.54373207  0.88953631     0.73700
O2349       O  0.69415144  0.72459029  0.82679478    -0.39800
O2350       O  0.63334671  0.70612717  0.84477468    -0.39700
O2351       O  0.70844363  0.52606467  0.90937035    -0.40400
O2352       O  0.64519039  0.53384692  0.89411325    -0.40500
C2353       C  0.62955523  0.78541661  0.91137867    -0.12800
C2354       C  0.66695772  0.79587070  0.89423573     0.04200
C2355       C  0.66968952  0.80409129  0.85393940    -0.08100
C2356       C  0.63506082  0.79950519  0.83099190    -0.08800
C2357       C  0.59809580  0.78698179  0.84775596    -0.03400
C2358       C  0.59487229  0.78099856  0.88864997     0.03400
N2359       N  0.55759848  0.76878800  0.90758330     0.65900
H2360       H  0.62758332  0.77902082  0.94245601     0.14800
H2361       H  0.63727455  0.80467995  0.79973602     0.14600
N2362       N  0.70642253  0.81873436  0.83588969     0.73700
O2363       O  0.55791618  0.73891710  0.93000323    -0.39800
O2364       O  0.53088346  0.79509632  0.91356896    -0.39700
O2365       O  0.72407765  0.79627859  0.81081052    -0.40400
O2366       O  0.71067347  0.85662257  0.83277797    -0.40500
C2367       C  0.84936675  0.69339315  0.59812668    -0.12800
C2368       C  0.80993956  0.70503813  0.60936545     0.04200
C2369       C  0.80097244  0.71005244  0.65001189    -0.08100
C2370       C  0.83171170  0.70906482  0.67715244    -0.08800
C2371       C  0.87176925  0.70312384  0.66557913    -0.03400
C2372       C  0.88031227  0.69163838  0.62614102     0.03400
N2373       N  0.91877811  0.67563603  0.61452547     0.65900
H2374       H  0.85634117  0.68624381  0.56764292     0.14800
H2375       H  0.82430988  0.71618157  0.70756720     0.14600
N2376       N  0.76146955  0.71869790  0.66515367     0.73700
O2377       O  0.92620809  0.63982843  0.62394319    -0.39800
O2378       O  0.93775172  0.69048436  0.58562200    -0.39700
O2379       O  0.74194797  0.69040769  0.68189393    -0.40400
O2380       O  0.75492388  0.75482689  0.67611726    -0.40500
C2381       C  0.89221459  0.60716082  0.95331595    -0.12800
C2382       C  0.87663410  0.56828900  0.94478764     0.04200
C2383       C  0.83605087  0.56362157  0.93203638    -0.08100
C2384       C  0.80986004  0.59637543  0.93630901    -0.08800
C2385       C  0.82492081  0.63416575  0.95063096    -0.03400
C2386       C  0.86734279  0.64036512  0.95441135     0.03400
N2387       N  0.88640785  0.67916224  0.96141787     0.65900
H2388       H  0.92398675  0.61198194  0.96082314     0.14800
H2389       H  0.77782771  0.59213088  0.92937213     0.14600
N2390       N  0.82289563  0.52792100  0.91093039     0.73700
O2391       O  0.89043342  0.69136100  0.99655438    -0.39800
O2392       O  0.91268426  0.69093311  0.93653881    -0.39700
O2393       O  0.83155655  0.52508075  0.87481303    -0.40400
O2394       O  0.81252388  0.49642180  0.92921952    -0.40500
C2395       C  0.61445897  0.86300002  0.01743241    -0.12800
C2396       C  0.65654322  0.87329057  0.53639995     0.04200
C2397       C  0.66544316  0.91417854  0.54709287    -0.08100
C2398       C  0.63535685  0.94279694  0.54478426    -0.08800
C2399       C  0.59707861  0.93164722  0.53086582    -0.03400
C2400       C  0.58503675  0.89243746  0.01407443     0.03400
N2401       N  0.55010295  0.88232094  0.99057595     0.65900
H2402       H  0.60905922  0.83317359  0.00420965     0.14800
H2403       H  0.64248713  0.97430548  0.55256351     0.14600
N2404       N  0.70398365  0.92785735  0.56125146     0.73700
O2405       O  0.54366144  0.90318046  0.96109014    -0.39800
O2406       O  0.53021345  0.84996648  0.51976872    -0.39700
O2407       O  0.72767058  0.94537165  0.53734322    -0.40400
O2408       O  0.70540202  0.93914309  0.59682026    -0.40500
C2409       C  0.58788328  0.97550196  0.86117988    -0.12800
C2410       C  0.59589479  0.96655162  0.89993848     0.04200
C2411       C  0.63678539  0.95841171  0.91038240    -0.08100
C2412       C  0.66707846  0.95686965  0.88104996    -0.08800
C2413       C  0.65853739  0.96557369  0.84210771    -0.03400
C2414       C  0.61852116  0.97631675  0.83271982     0.03400
N2415       N  0.60799324  0.99088602  0.79537716     0.65900
H2416       H  0.55774182  0.98494198  0.85312062     0.14800
H2417       H  0.69799549  0.95014612  0.88911518     0.14600
N2418       N  0.64214737  0.42201367  0.94630085     0.73700
O2419       O  0.58470318  0.96832374  0.77476101    -0.39800
O2420       O  0.60591109  0.02882864  0.79189298    -0.39700
O2421       O  0.65757339  0.91361551  0.95576181    -0.40400
O2422       O  0.66693339  0.43934607  0.96965263    -0.40500
C2423       C  0.81429858  0.54785461  0.59529684    -0.12800
C2424       C  0.82242902  0.54531948  0.63526853     0.04200
C2425       C  0.86364542  0.54994608  0.64758014    -0.08100
C2426       C  0.89520160  0.55235574  0.61933552    -0.08800
C2427       C  0.88661762  0.55305092  0.57928537    -0.03400
C2428       C  0.84253284  0.04414860  0.56219815     0.03400
N2429       N  0.82993079  0.03020832  0.52414457     0.65900
H2430       H  0.78114322  0.03962500  0.58161376     0.14800
H2431       H  0.92663569  0.55209883  0.62861508     0.14600
N2432       N  0.87407142  0.55517581  0.68806267     0.73700
O2433       O  0.82780807  0.99237368  0.51754431    -0.39800
O2434       O  0.80554435  0.05203215  0.50628907    -0.39700
O2435       O  0.90613955  0.53980478  0.70059653    -0.40400
O2436       O  0.85955069  0.58501350  0.70680723    -0.40500
C2437       C  0.94149034  0.88014613  0.66521742    -0.12800
C2438       C  0.94858090  0.83983947  0.65373230     0.04200
C2439       C  0.95385155  0.82988992  0.61309465    -0.08100
C2440       C  0.95405657  0.86011452  0.58583455    -0.08800
C2441       C  0.94964786  0.90039668  0.59730665    -0.03400
C2442       C  0.94126014  0.91030542  0.63697987     0.03400
N2443       N  0.92930182  0.95018950  0.64806855     0.65900
H2444       H  0.93627501  0.88826644  0.69588606     0.14800
H2445       H  0.46915340  0.85363288  0.55312056     0.14600
N2446       N  0.49294376  0.79655648  0.59757585     0.73700
O2447       O  0.95641493  0.97627974  0.65762553    -0.39800
O2448       O  0.89508751  0.96192543  0.63700434    -0.39700
O2449       O  0.47836829  0.77744001  0.56818832    -0.40400
O2450       O  0.53094431  0.79551077  0.60247699    -0.40500
C2451       C  0.54221836  0.57465488  0.83889154    -0.12800
C2452       C  0.54209635  0.58084900  0.87954146     0.04200
C2453       C  0.04644063  0.63273471  0.90394780    -0.08100
C2454       C  0.04715678  0.66411875  0.87787590    -0.08800
C2455       C  0.53275965  0.64643340  0.83093738    -0.03400
C2456       C  0.54080688  0.60773678  0.81428046     0.03400
N2457       N  0.54947130  0.60119298  0.77364402     0.65900
H2458       H  0.54207384  0.54411525  0.82623656     0.14800
H2459       H  0.04769690  0.69487997  0.89006316     0.14600
N2460       N  0.04750297  0.64329112  0.94486068     0.73700
O2461       O  0.58650690  0.59865368  0.76378110    -0.39800
O2462       O  0.52334996  0.58200605  0.75308502    -0.39700
O2463       O  0.08197295  0.65083153  0.95983327    -0.40400
O2464       O  0.01699706  0.66065946  0.95984234    -0.40500
loop_ 
_geom_bond_atom_site_label_1 
_geom_bond_atom_site_label_2 
_geom_bond_distance 
_geom_bond_site_symmetry_2 
_ccdc_geom_bond_type 
C1            C2   1.556       .  S
C1            C7   1.544       .  S
C1            C5   1.570       .  S
C1          C120   1.596       .  S
C2            H9   1.086       .  S
C2            C3   1.382       .  D
C3            C4   1.631       .  S
C3           C62   1.611       .  S
C4            C8   1.622       .  S
C4            C6   1.617       .  S
C4           H10   1.109       .  S
C5           H11   1.085       .  S
C5            C6   1.383       .  D
C6           C36   1.599       .  S
C7           H12   1.086       .  S
C7            C8   1.375       .  D
C8           C94   1.577       .  S
C13          C14   1.530       .  S
C13          C19   1.539       .  S
C13          C17   1.574       .  S
C13         C140   1.584       .  S
C14          H21   1.083       .  S
C14          C15   1.369       .  D
C15          C16   1.629       .  S
C15         C109   1.580       .  S
C16          C20   1.624       .  S
C16          C18   1.622       .  S
C16          H22   1.110       .  S
C17          H23   1.086       .  S
C17          C18   1.386       .  D
C18          C51   1.605       .  S
C19          H24   1.087       .  S
C19          C20   1.375       .  D
C20          C82   1.579       .  S
O25          C33   1.289       .  A
O25       Co1893   2.008   1_455  S
O26          C34   1.278       .  A
O26       Co1278   1.985       .  S
O27         C343   1.248       .  A
O27        Co663   1.973       .  S
O28          C36   1.268       .  A
O28        Co356   2.036       .  S
O29          C35   1.239       .  A
O29         Co46   1.974   1_455  S
O30          C36   1.308       .  A
O30        Co661   2.157       .  S
O31          C34   1.287       .  A
O31         Co48   1.984   1_554  S
O32          C33   1.260       .  A
O32        Co663   1.950       .  S
C33         C254   1.483       .  S
C34         C285   1.480       .  S
C35         O335   1.267       .  A
C35         C243   1.451       .  S
O37          C50   1.252       .  A
O37         Co45   1.940   1_545  S
O38          C51   1.315       .  A
O38        Co662   2.097   1_455  S
O39          C52   1.308       .  A
O39         Co47   2.099       .  S
O40         C669   1.259       .  A
O40         Co48   1.961   1_554  S
O41         C669   1.280       .  A
O41       Co1278   2.024       .  S
O42        C1284   1.276       .  A
O42         Co45   1.890   1_545  S
O43          C50   1.273   1_565  A
O43        Co972   2.004       .  S
O44          C51   1.308       .  A
O44        Co355   2.085   1_554  S
Co45       O1873   1.981       .  S
Co45        O646   2.104       .  S
Co45        O665   1.938       .  S
Co46       O1258   2.006       .  S
Co46        O654   2.093   1_655  S
Co46       O1273   2.002       .  S
Co46       O1589   2.079   1_554  S
Co47        O643   2.006   1_545  S
Co47        O648   2.119       .  S
Co47        O352   2.100       .  S
Co47       O1897   2.104   1_445  S
Co48        O336   2.060       .  S
Co48        O967   2.021       .  S
Co48        O357   2.056       .  S
O49        Co661   1.901       .  S
O49       Co1586   2.060       .  S
O49       Co1895   2.091       .  S
O49        Co356   2.037       .  S
C50         C226   1.465       .  S
C52        O1274   1.270       .  A
C52         C296   1.439       .  S
C53         O656   1.259       .  A
C53         O657   1.281       .  A
C53         C271   1.476       .  S
O54          C62   1.308       .  A
O54         Co74   2.158       .  S
O55          C63   1.267       .  A
O55         Co75   2.006       .  S
O56          C64   1.278       .  A
O56        Co384   2.018   1_554  S
O57          C65   1.262       .  A
O57        Co385   1.846       .  S
O58          C64   1.268       .  A
O58         Co75   1.995       .  S
O59          C65   1.304       .  A
O59         Co74   2.072       .  S
O60          C63   1.261       .  A
O60         Co77   1.970       .  S
O61          C62   1.294       .  A
O61         Co76   2.042       .  S
C63         C212   1.486       .  S
C64         C173   1.501       .  S
C65         C229   1.457       .  S
O66          C79   1.263       .  A
O66         Co74   1.937       .  S
O67          C80   1.282       .  A
O67         Co75   1.973       .  S
O68          C81   1.253       .  A
O68         Co76   1.977       .  S
O69          C82   1.297       .  A
O69         Co77   2.094       .  S
O70          C82   1.283       .  A
O70         Co75   2.065       .  S
O71          C81   1.253       .  A
O71         Co74   1.981       .  S
O72          C79   1.274       .  A
O72        Co385   2.007       .  S
O73         C388   1.280       .  A
O73         Co76   1.993       .  S
Co74         O78   2.161       .  S
Co75        O386   2.044       .  S
Co76        O364   2.012       .  S
Co76         O78   1.987       .  S
Co77        O365   1.880   1_554  S
Co77        O380   1.956   1_554  S
Co77        O386   1.893       .  S
O78        Co383   2.071       .  S
O78        Co385   1.919       .  S
C79         C187   1.465       .  S
C80         O381   1.283       .  A
C80         C240   1.458       .  S
C81         C198   1.466       .  S
O83          C91   1.283       .  A
O83       Co1335   1.982   1_455  S
O84          C92   1.303       .  A
O84       Co1336   2.087       .  S
O85          C93   1.242       .  A
O85        Co105   1.945       .  S
O86          C94   1.297       .  A
O86        Co106   2.098       .  S
O87          C93   1.256       .  A
O87        Co104   2.009   1_455  S
O88          C94   1.281       .  A
O88        Co103   2.046       .  S
O89          C92   1.264       .  A
O89        Co106   1.949       .  S
O90          C91   1.291       .  A
O90        Co105   2.017       .  S
C91         C201   1.471       .  S
C92         C282   1.477       .  S
C93         C156   1.460       .  S
O95         C108   1.265       .  A
O95        Co103   2.021       .  S
O96         C109   1.293       .  A
O96        Co104   2.114   1_455  S
O97         C110   1.261       .  A
O97        Co105   1.969       .  S
O98         C111   1.277       .  A
O98        Co106   1.872       .  S
O99         C111   1.302       .  A
O99       Co1336   2.107       .  S
O100       C1342   1.264       .  A
O100       Co103   1.966       .  S
O101        C108   1.256       .  A
O101       Co106   1.972       .  S
O102        C109   1.293       .  A
O102       Co105   2.019       .  S
Co103      O1315   1.983       .  S
Co103       O107   2.077       .  S
Co104      O1316   1.893       .  S
Co104      O1331   2.050       .  S
Co104      O1339   2.157       .  S
Co105      O1339   1.985   1_455  S
Co106       O107   1.877       .  S
O107      Co1336   2.120       .  S
O107      Co1337   2.043       .  S
C108        C142   1.477       .  S
C110       O1332   1.251       .  A
C110        C299   1.440       .  S
C111        C215   1.488       .  S
O112        C120   1.296       .  A
O112       Co748   2.030       .  S
O113        C121   1.268       .  A
O113       Co749   2.011   1_545  S
O114        C122   1.272       .  A
O114       Co134   2.010       .  S
O115        C123   1.273       .  A
O115       Co135   1.852       .  S
O116        C122   1.263       .  A
O116       Co133   1.980       .  S
O117        C123   1.320       .  A
O117       Co132   2.146   1_545  S
O118        C121   1.243       .  A
O118       Co135   1.965       .  S
O119        C120   1.310       .  A
O119       Co134   2.073       .  S
C121        C268   1.486       .  S
C122        C170   1.493       .  S
C123        C145   1.483       .  S
O124        C137   1.295       .  A
O124       Co132   2.050   1_545  S
O125        C138   1.270       .  A
O125       Co133   1.974       .  S
O126        C139   1.250       .  A
O126       Co134   2.007       .  S
O127        C140   1.300       .  A
O127       Co135   2.120       .  S
O128        C140   1.262       .  A
O128       Co749   1.984   1_545  S
O129        C139   1.280       .  A
O129       Co748   2.077       .  S
O130        C137   1.265       .  A
O130       Co135   1.951       .  S
O131        C138   1.289       .  A
O131       Co134   2.032       .  S
Co132       O728   2.068       .  S
Co132       O745   2.064       .  S
Co132       O752   2.066   1_565  S
Co133       O729   2.026       .  S
Co133       O744   2.004       .  S
Co133       O136   2.050       .  S
Co134       O136   2.064       .  S
Co135       O752   1.896       .  S
O136       Co748   2.076       .  S
O136       Co751   1.906       .  S
C137        C184   1.465       .  S
C138        C159   1.479       .  S
C139        C257   1.510       .  S
C141        C142   1.391       .  A
C141        C146   1.397       .  A
C141        H148   1.084       .  S
C142        C143   1.409       .  A
C143        C144   1.401       .  A
C143        N150   1.410       .  S
C144        C145   1.392       .  A
C144        H149   1.083       .  S
C145        C146   1.418       .  A
C146        N147   1.422       .  S
N147        O151   1.259       .  A
N147        O152   1.260       .  A
N150        O154   1.251       .  A
N150        O153   1.262       .  A
C155        C156   1.391       .  A
C155        C160   1.397       .  A
C155        H162   1.085       .  S
C156        C157   1.411       .  A
C157        C158   1.399       .  A
C157        N164   1.422       .  S
C158        C159   1.397       .  A
C158        H163   1.082       .  S
C159        C160   1.418       .  A
C160        N161   1.425       .  S
N161        O165   1.261       .  A
N161        O166   1.262       .  A
N164        O168   1.261       .  A
N164        O167   1.259       .  A
C169        C170   1.416       .  A
C169        C174   1.417       .  A
C169        H176   1.085       .  S
C170        C171   1.415       .  A
C171        C172   1.402       .  A
C171        N178   1.426       .  S
C172        C173   1.399       .  A
C172        H177   1.081       .  S
C173        C174   1.408       .  A
C174        N175   1.424       .  S
N175        O179   1.261       .  A
N175        O180   1.260       .  A
N178        O182   1.262       .  A
N178        O181   1.261       .  A
C183        C184   1.409       .  A
C183        C188   1.410       .  A
C183        H190   1.082       .  S
C184        C185   1.419       .  A
C185        C186   1.376       .  A
C185        N192   1.445       .  S
C186        C187   1.393       .  A
C186        H191   1.068       .  S
C187        C188   1.404       .  A
C188        N189   1.424       .  S
N189        O193   1.262       .  A
N189        O194   1.261       .  A
N192        O196   1.260       .  A
N192        O195   1.263       .  A
C197        C198   1.389       .  A
C197        C202   1.386       .  A
C197        H204   1.084       .  S
C198        C199   1.404       .  A
C199        C200   1.404       .  A
C199        N206   1.423       .  S
C200        C201   1.407       .  A
C200        H205   1.085       .  S
C201        C202   1.415       .  A
C202        N203   1.423       .  S
N203        O207   1.262       .  A
N203        O208   1.261       .  A
N206        O210   1.257       .  A
N206        O209   1.262       .  A
C211        C212   1.407       .  A
C211        C216   1.409       .  A
C211        H218   1.081       .  S
C212        C213   1.410       .  A
C213        C214   1.389       .  A
C213        N220   1.424       .  S
C214        C215   1.398       .  A
C214        H219   1.082       .  S
C215        C216   1.420       .  A
C216        N217   1.434       .  S
N217        O221   1.261       .  A
N217        O222   1.263       .  A
N220        O224   1.262       .  A
N220        O223   1.262       .  A
C225        C226   1.395       .  A
C225        C230   1.397       .  A
C225        H232   1.084       .  S
C226        C227   1.415       .  A
C227        C228   1.386       .  A
C227        N234   1.429       .  S
C228        C229   1.393       .  A
C228        H233   1.086       .  S
C229        C230   1.433       .  A
C230        N231   1.453       .  S
N231        O235   1.261       .  A
N231        O236   1.260       .  A
N234        O238   1.262       .  A
N234        O237   1.260       .  A
C239        C244   1.389       .  A
C239        C548   1.390       .  A
C239        H246   1.084       .  S
C240        C241   1.413       .  A
C240        C547   1.392       .  A
C241        C242   1.394       .  A
C241        N248   1.421       .  S
C242        C243   1.390       .  A
C242        H247   1.084       .  S
C243        C552   1.409       .  A
C244        C551   1.411       .  A
C244        N245   1.424       .  S
N245        O249   1.259       .  A
N245        O558   1.259       .  A
N248        O252   1.260       .  A
N248        O251   1.261       .  A
O250        N553   1.260       .  A
C253        C254   1.383       .  A
C253        C258   1.396       .  A
C253        H260   1.083       .  S
C254        C255   1.431       .  A
C255        C256   1.408       .  A
C255        N878   1.437       .  S
C256        C257   1.404       .  A
C256        H261   1.081       .  S
C257        C258   1.421       .  A
C258        N259   1.416       .  S
N259        O263   1.259       .  A
N259        O264   1.261       .  A
N262        C871   1.424   1_545  S
N262        O266   1.261       .  A
N262        O881   1.262       .  A
O265        N878   1.262       .  A
C267        C268   1.385       .  A
C267        C888   1.387       .  A
C267        H890   1.084       .  S
C268        C269   1.423       .  A
C269        C270   1.407       .  A
C269        N276   1.425       .  S
C270        C271   1.398       .  A
C270        H275   1.084       .  S
C271        C888   1.423       .  A
C272        C883   1.393       .  A
C272        C887   1.416       .  A
C272        N273   1.418       .  S
N273        O277   1.261       .  A
N273        O278   1.258       .  A
H274        C883   1.084       .  S
N276        O280   1.262       .  A
N276        O279   1.262       .  A
C281        C282   1.409       .  A
C281        C286   1.411       .  A
C281        H288   1.084       .  S
C282        C283   1.407       .  A
C283        C284   1.382       .  A
C283       N1522   1.418       .  S
C284        C285   1.389       .  A
C284       H1521   1.083       .  S
C285        C286   1.416       .  A
C286        N287   1.428       .  S
N287        O291   1.262       .  A
N287        O292   1.261       .  A
H289       C1516   1.080       .  S
N290       C1515   1.426       .  S
N290        O294   1.263       .  A
N290        O293   1.260       .  A
C295        C296   1.414       .  A
C295        C300   1.403       .  A
C295        H302   1.084       .  S
C296       C1529   1.397       .  A
C297        C298   1.377       .  A
C297       C1528   1.410       .  A
C297        N304   1.429       .  S
C298       C1531   1.400       .  A
C298        H303   1.084       .  S
C299        C300   1.394       .  A
C299       C1530   1.391       .  A
C300        N301   1.424       .  S
N301        O305   1.262       .  A
N301        O306   1.261       .  A
N304        O308   1.261       .  A
N304        O307   1.262       .  A
C309        C310   1.551       .  S
C309        C315   1.555       .  S
C309        C313   1.569       .  S
C309        C428   1.614       .  S
C310        H317   1.085       .  S
C310        C311   1.379       .  D
C311        C312   1.610       .  S
C311        C370   1.573       .  S
C312        C316   1.618       .  S
C312        C314   1.602       .  S
C312        H318   1.110       .  S
C313        H319   1.075       .  S
C313        C314   1.386       .  D
C314        C344   1.594       .  S
C315        H320   1.085       .  S
C315        C316   1.380       .  D
C316        C402   1.581       .  S
C321        C322   1.545       .  S
C321        C327   1.558       .  S
C321        C325   1.568       .  S
C321        C448   1.614       .  S
C322        H329   1.086       .  S
C322        C323   1.379       .  D
C323        C324   1.641       .  S
C323        C417   1.605       .  S
C324        C328   1.632       .  S
C324        C326   1.633       .  S
C324        H330   1.109       .  S
C325        H331   1.086       .  S
C325        C326   1.382       .  D
C326        C359   1.613       .  S
C327        H332   1.086       .  S
C327        C328   1.388       .  D
C328        C390   1.610       .  S
O333        C341   1.271       .  A
O333      Co2201   1.956   1_455  S
O334        C342   1.294       .  A
O334      Co1586   2.017       .  S
O335       Co971   2.009       .  S
O336        C344   1.283       .  A
O337        C343   1.243       .  A
O337       Co354   1.965   1_455  S
O338        C344   1.300       .  A
O338       Co969   2.124       .  S
O339        C342   1.284       .  A
O339       Co356   1.957       .  S
O340        C341   1.311       .  A
O340       Co971   2.132   1_556  S
C341        C562   1.501       .  S
C342        C593   1.463       .  S
C343        C551   1.448       .  S
O345        C358   1.252       .  A
O345       Co353   1.948       .  S
O346        C359   1.314       .  A
O346       Co970   2.097   1_455  S
O347        C360   1.303       .  A
O347       Co355   2.088       .  S
O348        C977   1.233       .  A
O348       Co356   1.922       .  S
O349        C977   1.279       .  A
O349      Co1586   2.061       .  S
O350       C1592   1.272       .  A
O350       Co353   1.850       .  S
O351        C358   1.266       .  A
O351       Co664   2.020   1_545  S
O352        C359   1.310       .  A
Co353      O2181   1.996   1_545  S
Co353       O954   2.126   1_545  S
Co353       O973   1.929   1_545  S
Co354      O1566   2.000       .  S
Co354       O962   2.063   1_655  S
Co354      O1581   1.994       .  S
Co354      O1281   2.003       .  S
Co355       O951   1.995   1_546  S
Co355       O956   2.138   1_545  S
Co355      O2205   2.105   1_445  S
Co356       O659   2.049       .  S
O357       Co969   1.903       .  S
O357      Co1278   2.077   1_556  S
O357      Co2203   2.101       .  S
C358        C534   1.471       .  S
C360       O1582   1.277   1_455  A
C360        C604   1.461       .  S
C361        O964   1.263   1_545  A
C361        O965   1.279       .  A
C361        C579   1.478       .  S
O362        C370   1.303       .  A
O362       Co382   2.065       .  S
O363        C371   1.268       .  A
O363       Co383   2.020       .  S
O364        C372   1.280       .  A
O365        C373   1.279       .  A
O366        C372   1.265       .  A
O366       Co383   1.968       .  S
O367        C373   1.298       .  A
O367       Co382   2.079       .  S
O368        C371   1.254       .  A
O368       Co385   1.969       .  S
O369        C370   1.308       .  A
O369       Co384   2.064       .  S
C371        C520   1.488       .  S
C372        C481   1.486       .  S
C373        C537   1.463       .  S
O374        C387   1.308       .  A
O374       Co382   2.133       .  S
O375        C388   1.285       .  A
O375       Co383   1.986       .  S
O376        C389   1.246       .  A
O376       Co384   1.974       .  S
O377        C390   1.296       .  A
O377       Co385   2.120       .  S
O378        C390   1.286       .  A
O378       Co383   2.083       .  S
O379        C389   1.266       .  A
O379       Co382   1.997       .  S
O380        C387   1.265       .  A
O381       Co384   2.005   1_554  S
Co382       O386   2.093   1_556  S
Co384       O386   2.063   1_556  S
C387        C495   1.497       .  S
C388        C548   1.457       .  S
C389        C506   1.448       .  S
O391        C399   1.272       .  A
O391      Co1643   1.954   1_455  S
O392        C400   1.295       .  A
O392      Co1644   2.036       .  S
O393        C401   1.239       .  A
O393       Co413   1.949       .  S
O394        C402   1.303       .  A
O394       Co414   2.129       .  S
O395        C401   1.273       .  A
O395       Co412   2.045       .  S
O396        C402   1.280       .  A
O396       Co411   2.032       .  S
O397        C400   1.271       .  A
O397       Co414   1.958       .  S
O398        C399   1.295       .  A
O398       Co413   2.032       .  S
C399        C509   1.456       .  S
C400        C590   1.464       .  S
C401        C464   1.459       .  S
O403        C416   1.263       .  A
O403       Co411   2.028       .  S
O404        C417   1.305       .  A
O404       Co412   2.091       .  S
O405        C418   1.265       .  A
O405       Co413   1.979       .  S
O406        C419   1.275       .  A
O406       Co414   1.845       .  S
O407        C419   1.308       .  A
O407      Co1644   2.119       .  S
O408       C1650   1.263       .  A
O408       Co411   1.955       .  S
O409        C416   1.252       .  A
O409       Co414   1.980       .  S
O410        C417   1.315       .  A
O410       Co413   2.086       .  S
Co411      O1623   1.977       .  S
Co411       O415   2.073       .  S
Co412      O1624   2.075   1_455  S
Co412      O1639   2.117   1_455  S
Co412      O1647   2.128   1_455  S
Co413      O1647   2.056   1_455  S
Co414       O415   1.873       .  S
O415      Co1644   2.118       .  S
O415      Co1645   2.049       .  S
C416        C450   1.476       .  S
C418       O1640   1.266       .  A
C418        C607   1.477       .  S
C419        C523   1.482       .  S
O420        C428   1.304       .  A
O420      Co1056   2.057       .  S
O421        C429   1.271       .  A
O421      Co1057   1.991   1_545  S
O422        C430   1.272       .  A
O422       Co442   2.010       .  S
O423        C431   1.278       .  A
O423       Co443   1.915       .  S
O424        C430   1.268       .  A
O424       Co441   2.009       .  S
O425        C431   1.298       .  A
O425       Co440   2.053       .  S
O426        C429   1.254       .  A
O426       Co443   1.990       .  S
O427        C428   1.312       .  A
O427       Co442   2.079       .  S
C429        C576   1.490       .  S
C430        C478   1.507       .  S
C431        C453   1.477       .  S
O432        C445   1.259       .  A
O432       Co440   1.944       .  S
O433        C446   1.262       .  A
O433       Co441   1.955       .  S
O434        C447   1.249       .  A
O434       Co442   1.995       .  S
O435        C448   1.298       .  A
O435       Co443   2.129       .  S
O436        C448   1.271       .  A
O436      Co1057   2.018   1_545  S
O437        C447   1.271       .  A
O437      Co1056   2.032       .  S
O438        C445   1.275       .  A
O438       Co443   1.999       .  S
O439        C446   1.293       .  A
O439       Co442   2.040       .  S
Co440      O1036   2.115   1_545  S
Co440      O1053   1.999   1_545  S
Co440      O1060   2.129   1_545  S
Co441      O1037   2.005       .  S
Co441      O1052   2.012       .  S
Co441       O444   2.049       .  S
Co442       O444   2.076       .  S
Co443      O1060   1.962   1_545  S
O444      Co1056   2.088       .  S
O444      Co1059   1.918       .  S
C445        C492   1.470       .  S
C446        C467   1.477       .  S
C447        C565   1.478       .  S
C449        C450   1.393       .  A
C449        C454   1.396       .  A
C449        H456   1.084       .  S
C450        C451   1.414       .  A
C451        C452   1.402       .  A
C451        N458   1.429       .  S
C452        C453   1.398       .  A
C452        H457   1.085       .  S
C453        C454   1.411       .  A
C454        N455   1.420       .  S
N455        O459   1.260       .  A
N455        O460   1.261       .  A
N458        O462   1.262       .  A
N458        O461   1.262       .  A
C463        C464   1.394       .  A
C463        C468   1.399       .  A
C463        H470   1.081       .  S
C464        C465   1.413       .  A
C465        C466   1.392       .  A
C465        N472   1.426       .  S
C466        C467   1.390       .  A
C466        H471   1.077       .  S
C467        C468   1.423       .  A
C468        N469   1.429       .  S
N469        O473   1.262       .  A
N469        O474   1.262       .  A
N472        O476   1.261       .  A
N472        O475   1.262       .  A
C477        C478   1.420       .  A
C477        C482   1.420       .  A
C477        H484   1.083       .  S
C478        C479   1.423       .  A
C479        C480   1.402       .  A
C479        N486   1.427       .  S
C480        C481   1.397       .  A
C480        H485   1.082       .  S
C481        C482   1.397       .  A
C482        N483   1.425       .  S
N483        O487   1.262       .  A
N483        O488   1.261       .  A
N486        O490   1.261       .  A
N486        O489   1.261       .  A
C491        C492   1.386       .  A
C491        C496   1.404       .  A
C491        H498   1.084       .  S
C492        C493   1.411       .  A
C493        C494   1.390       .  A
C493        N500   1.415       .  S
C494        C495   1.393       .  A
C494        H499   1.084       .  S
C495        C496   1.418       .  A
C496        N497   1.410       .  S
N497        O501   1.260       .  A
N497        O502   1.261       .  A
N500        O504   1.261       .  A
N500        O503   1.262       .  A
C505        C506   1.390       .  A
C505        C510   1.385       .  A
C505        H512   1.085       .  S
C506        C507   1.407       .  A
C507        C508   1.395       .  A
C507        N514   1.423       .  S
C508        C509   1.394       .  A
C508        H513   1.084       .  S
C509        C510   1.416       .  A
C510        N511   1.427       .  S
N511        O515   1.261       .  A
N511        O516   1.261       .  A
N514        O518   1.261       .  A
N514        O517   1.261       .  A
C519        C520   1.415       .  A
C519        C524   1.413       .  A
C519        H526   1.082       .  S
C520        C521   1.411       .  A
C521        C522   1.387       .  A
C521        N528   1.424       .  S
C522        C523   1.396       .  A
C522        H527   1.085       .  S
C523        C524   1.412       .  A
C524        N525   1.438       .  S
N525        O529   1.263       .  A
N525        O530   1.262       .  A
N528        O532   1.261       .  A
N528        O531   1.262       .  A
C533        C534   1.405       .  A
C533        C538   1.394       .  A
C533        H540   1.084       .  S
C534        C535   1.413       .  A
C535        C536   1.396       .  A
C535        N542   1.426       .  S
C536        C537   1.394       .  A
C536        H541   1.084       .  S
C537        C538   1.406       .  A
C538        N539   1.431       .  S
N539        O543   1.262       .  A
N539        O544   1.262       .  A
N542        O546   1.263       .  A
N542        O545   1.260   1_545  A
C547        C552   1.388       .  A
C547        H554   1.085       .  S
C548        C549   1.413       .  A
C549        C550   1.391       .  A
C549        N556   1.421       .  S
C550        C551   1.387       .  A
C550        H555   1.084       .  S
C552        N553   1.423       .  S
N553        O557   1.261   1_554  A
N556        O560   1.261       .  A
N556        O559   1.260       .  A
C561        C562   1.410       .  A
C561        C566   1.402       .  A
C561        H568   1.084       .  S
C562        C563   1.426       .  A
C563        C564   1.406       .  A
C563       N1186   1.419       .  S
C564        C565   1.388       .  A
C564        H569   1.083       .  S
C565        C566   1.399       .  A
C566        N567   1.421       .  S
N567        O571   1.262       .  A
N567        O572   1.259       .  A
N570       C1179   1.418       .  S
N570        O574   1.262       .  A
N570       O1189   1.262       .  A
O573       N1186   1.261       .  A
C575        C576   1.384       .  A
C575       C1196   1.379       .  A
C575       H1198   1.085       .  S
C576        C577   1.425       .  A
C577        C578   1.415       .  A
C577        N584   1.422       .  S
C578        C579   1.399       .  A
C578        H583   1.083       .  S
C579       C1196   1.405       .  A
C580       C1191   1.389       .  A
C580       C1195   1.434       .  A
C580        N581   1.436       .  S
N581        O585   1.259       .  A
N581        O586   1.262       .  A
H582       C1191   1.083       .  S
N584        O588   1.262       .  A
N584        O587   1.262       .  A
C589        C590   1.405       .  A
C589        C594   1.399       .  A
C589        H596   1.084       .  S
C590        C591   1.413       .  A
C591        C592   1.383       .  A
C591       N1830   1.426       .  S
C592        C593   1.392       .  A
C592       H1829   1.082       .  S
C593        C594   1.406       .  A
C594        N595   1.427       .  S
N595        O599   1.262       .  A
N595        O600   1.262       .  A
H597       C1824   1.077       .  S
N598       C1823   1.425       .  S
N598        O602   1.263   1_655  A
N598        O601   1.261       .  A
C603        C604   1.403       .  A
C603        C608   1.396       .  A
C603        H610   1.084       .  S
C604       C1837   1.404       .  A
C605       C1836   1.412       .  A
C605        C606   1.347       .  A
C605        N612   1.426       .  S
C606       C1839   1.374       .  A
C606        H611   1.256       .  S
C607       C1838   1.404       .  A
C607        C608   1.408       .  A
C608        N609   1.423       .  S
N609        O613   1.263       .  A
N609        O614   1.261       .  A
N612        O616   1.262       .  A
N612        O615   1.262       .  A
C617        C618   1.561       .  S
C617        C623   1.553       .  S
C617        C621   1.568       .  S
C617        C736   1.615       .  S
C618        H625   1.086       .  S
C618        C619   1.386       .  D
C619        C620   1.600       .  S
C619        C678   1.576       .  S
C620        C624   1.605       .  S
C620        C622   1.595       .  S
C620        H626   1.110       .  S
C621        H627   1.085       .  S
C621        C622   1.389       .  D
C622        C652   1.579       .  S
C623        H628   1.083       .  S
C623        C624   1.378       .  D
C624        C710   1.568       .  S
C629        C630   1.543       .  S
C629        C635   1.549       .  S
C629        C633   1.565       .  S
C629        C756   1.600       .  S
C630        H637   1.082       .  S
C630        C631   1.377       .  D
C631        C632   1.633       .  S
C631        C725   1.598       .  S
C632        C636   1.623       .  S
C632        C634   1.625       .  S
C632        H638   1.110       .  S
C633        H639   1.086       .  S
C633        C634   1.378       .  D
C634        C667   1.601       .  S
C635        H640   1.086       .  S
C635        C636   1.382       .  D
C636        C698   1.587       .  S
O641        C649   1.282       .  A
O641      Co1277   1.980   1_455  S
O642        C650   1.279       .  A
O642      Co1894   1.987   1_565  S
O643        C959   1.266       .  A
O644        C652   1.278       .  A
O644       Co972   2.054       .  S
O645        C651   1.248       .  A
O645       Co662   2.002   1_465  S
O646        C652   1.290       .  A
O647        C650   1.281       .  A
O647       Co664   1.970   1_554  S
O648        C649   1.310   1_545  A
C649        C870   1.517       .  S
C650        C901   1.463       .  S
C651        O951   1.264       .  A
C651        C859   1.463       .  S
O653        C666   1.247       .  A
O653       Co661   1.965       .  S
O654        C667   1.312       .  A
O655        C668   1.296       .  A
O655       Co663   2.024       .  S
O656       Co664   1.953   1_544  S
O657      Co1894   2.020       .  S
O658       C1900   1.281       .  A
O658       Co661   1.865       .  S
O659        C666   1.285       .  A
O660        C667   1.306       .  A
O660       Co971   2.089       .  S
Co661      O1257   1.951       .  S
Co662      O1874   1.995   1_545  S
Co662      O1889   2.043       .  S
Co662      O2205   2.065   1_544  S
Co663       O968   2.154       .  S
Co663      O1281   2.157   1_455  S
Co664       O952   2.048       .  S
Co664       O973   2.071       .  S
O665      Co2202   1.990   1_565  S
O665       Co972   2.050       .  S
O665      Co1279   2.147   1_565  S
C666        C842   1.511       .  S
C668       O1890   1.274       .  A
C668        C912   1.443       .  S
C669        C887   1.486       .  S
O670        C678   1.300       .  A
O670       Co690   2.055       .  S
O671        C679   1.262       .  A
O671       Co691   1.995       .  S
O672        C680   1.270       .  A
O672      Co1000   1.981   1_554  S
O673        C681   1.235       .  A
O673      Co1001   1.937       .  S
O674        C680   1.274       .  A
O674       Co691   1.996       .  S
O675        C681   1.270       .  A
O675       Co690   2.065       .  S
O676        C679   1.260       .  A
O676       Co693   1.977       .  S
O677        C678   1.310       .  A
O677       Co692   2.089       .  S
C679        C828   1.480       .  S
C680        C789   1.477       .  S
C681        C845   1.497       .  S
O682        C695   1.305       .  A
O682       Co690   2.077       .  S
O683        C696   1.277       .  A
O683       Co691   1.970       .  S
O684        C697   1.237       .  A
O684       Co692   1.992       .  S
O685        C698   1.300       .  A
O685       Co693   2.112       .  S
O686        C698   1.285       .  A
O686       Co691   2.063       .  S
O687        C697   1.237       .  A
O687       Co690   2.022       .  S
O688        C695   1.283       .  A
O688      Co1001   1.981       .  S
O689       C1004   1.274       .  A
O689       Co692   2.010       .  S
Co690       O694   2.149       .  S
Co691      O1002   2.061       .  S
Co692       O980   2.021       .  S
Co692       O694   2.093       .  S
Co693       O981   1.913   1_554  S
Co693       O996   1.993   1_554  S
Co693      O1002   1.930       .  S
O694       Co999   2.097       .  S
O694      Co1001   2.071       .  S
C695        C803   1.463       .  S
C696        O997   1.287       .  A
C696        C856   1.480       .  S
C697        C814   1.482       .  S
O699        C707   1.284       .  A
O699      Co1951   1.987   1_455  S
O700        C708   1.307       .  A
O700      Co1952   2.104       .  S
O701        C709   1.247       .  A
O701       Co721   1.935       .  S
O702        C710   1.293       .  A
O702       Co722   2.100       .  S
O703        C709   1.248       .  A
O703       Co720   1.976   1_455  S
O704        C710   1.273       .  A
O704       Co719   2.029       .  S
O705        C708   1.265       .  A
O705       Co722   1.946       .  S
O706        C707   1.290       .  A
O706       Co721   2.010       .  S
C707        C817   1.475       .  S
C708        C898   1.485       .  S
C709        C772   1.437       .  S
O711        C724   1.266       .  A
O711       Co719   2.012       .  S
O712        C725   1.301       .  A
O712       Co720   2.140   1_455  S
O713        C726   1.265       .  A
O713       Co721   1.967       .  S
O714        C727   1.268       .  A
O714       Co722   1.837       .  S
O715        C727   1.304       .  A
O715      Co1952   2.107       .  S
O716       C1958   1.258       .  A
O716       Co719   1.953       .  S
O717        C724   1.250       .  A
O717       Co722   1.965       .  S
O718        C725   1.295       .  A
O718       Co721   2.030       .  S
Co719      O1931   1.960       .  S
Co719       O723   2.062       .  S
Co720      O1932   1.933       .  S
Co720      O1947   2.043       .  S
Co720      O1955   2.168       .  S
Co721      O1955   1.974   1_455  S
Co722       O723   1.857       .  S
O723      Co1952   2.112       .  S
O723      Co1953   2.039       .  S
C724        C758   1.460       .  S
C726       O1948   1.252       .  A
C726        C915   1.454       .  S
C727        C831   1.469       .  S
O728        C736   1.306       .  A
O729        C737   1.269       .  A
O730        C738   1.273       .  A
O730       Co750   2.013       .  S
O731        C739   1.272       .  A
O731       Co751   1.854       .  S
O732        C738   1.261       .  A
O732       Co749   1.982       .  S
O733        C739   1.315       .  A
O733       Co748   2.130       .  S
O734        C737   1.245       .  A
O734       Co751   1.992       .  S
O735        C736   1.309       .  A
O735       Co750   2.073       .  S
C737        C884   1.506       .  S
C738        C786   1.494       .  S
C739        C761   1.476       .  S
O740        C753   1.294       .  A
O740       Co748   2.047       .  S
O741        C754   1.256       .  A
O741       Co749   1.927       .  S
O742        C755   1.246       .  A
O742       Co750   1.996       .  S
O743        C756   1.301       .  A
O743       Co751   2.124       .  S
O744        C756   1.273       .  A
O745        C755   1.280       .  A
O746        C753   1.270       .  A
O746       Co751   1.956       .  S
O747        C754   1.287       .  A
O747       Co750   2.020       .  S
Co749       O752   2.031   1_565  S
Co750       O752   2.068   1_565  S
C753        C800   1.471       .  S
C754        C775   1.463       .  S
C755        C873   1.508       .  S
C757        C758   1.389       .  A
C757        C762   1.390       .  A
C757        H764   1.084       .  S
C758        C759   1.418       .  A
C759        C760   1.400       .  A
C759        N766   1.426       .  S
C760        C761   1.398       .  A
C760        H765   1.084       .  S
C761        C762   1.418       .  A
C762        N763   1.430       .  S
N763        O767   1.258       .  A
N763        O768   1.263       .  A
N766        O770   1.262       .  A
N766        O769   1.262       .  A
C771        C772   1.387       .  A
C771        C776   1.395       .  A
C771        H778   1.085       .  S
C772        C773   1.397       .  A
C773        C774   1.384       .  A
C773        N780   1.428       .  S
C774        C775   1.396       .  A
C774        H779   1.075       .  S
C775        C776   1.432       .  A
C776        N777   1.439       .  S
N777        O781   1.264       .  A
N777        O782   1.262       .  A
N780        O784   1.262       .  A
N780        O783   1.262       .  A
C785        C786   1.418       .  A
C785        C790   1.414       .  A
C785        H792   1.084       .  S
C786        C787   1.418       .  A
C787        C788   1.398       .  A
C787        N794   1.423       .  S
C788        C789   1.390       .  A
C788        H793   1.083       .  S
C789        C790   1.403       .  A
C790        N791   1.428       .  S
N791        O795   1.262       .  A
N791        O796   1.261       .  A
N794        O798   1.259       .  A
N794        O797   1.261       .  A
C799        C800   1.400       .  A
C799        C804   1.404       .  A
C799        H806   1.081       .  S
C800        C801   1.421       .  A
C801        C802   1.382       .  A
C801        N808   1.430       .  S
C802        C803   1.389       .  A
C802        H807   1.082       .  S
C803        C804   1.410       .  A
C804        N805   1.424       .  S
N805        O809   1.262       .  A
N805        O810   1.260       .  A
N808        O812   1.261       .  A
N808        O811   1.261       .  A
C813        C814   1.397       .  A
C813        C818   1.395       .  A
C813        H820   1.084       .  S
C814        C815   1.419       .  A
C815        C816   1.398       .  A
C815        N822   1.425       .  S
C816        C817   1.397       .  A
C816        H821   1.084       .  S
C817        C818   1.413       .  A
C818        N819   1.426       .  S
N819        O823   1.263       .  A
N819        O824   1.261       .  A
N822        O826   1.262       .  A
N822        O825   1.261       .  A
C827        C828   1.414       .  A
C827        C832   1.407       .  A
C827        H834   1.082       .  S
C828        C829   1.415       .  A
C829        C830   1.379       .  A
C829        N836   1.426       .  S
C830        C831   1.391       .  A
C830        H835   1.081       .  S
C831        C832   1.401       .  A
C832        N833   1.426       .  S
N833        O837   1.258       .  A
N833        O838   1.261       .  A
N836        O840   1.262       .  A
N836        O839   1.262       .  A
C841        C842   1.379       .  A
C841        C846   1.388       .  A
C841        H848   1.074       .  S
C842        C843   1.437       .  A
C843        C844   1.420       .  A
C843        N850   1.422       .  S
C844        C845   1.395       .  A
C844        H849   1.084       .  S
C845        C846   1.423       .  A
C846        N847   1.428       .  S
N847        O851   1.262       .  A
N847        O852   1.261       .  A
N850        O854   1.263       .  A
N850        O853   1.261       .  A
C855       C1164   1.399       .  A
C855        C860   1.391       .  A
C855        H862   1.083       .  S
C856       C1163   1.402       .  A
C856        C857   1.413       .  A
C857        C858   1.397       .  A
C857        N864   1.421       .  S
C858        C859   1.392       .  A
C858        H863   1.085       .  S
C859       C1168   1.413       .  A
C860       C1167   1.409       .  A
C860        N861   1.427       .  S
N861        O865   1.262       .  A
N861       O1174   1.261       .  A
N864        O868   1.261       .  A
N864        O867   1.260       .  A
O866       N1169   1.261   1_556  A
C869        C870   1.406       .  A
C869        C874   1.415       .  A
C869        H876   1.082       .  S
C870        C871   1.427       .  A
C871        C872   1.405       .  A
C872        C873   1.396       .  A
C872        H877   1.083   1_565  S
C873        C874   1.424       .  A
C874        N875   1.431       .  S
N875        O879   1.262       .  A
N875        O880   1.263       .  A
N878        O882   1.263       .  A
C883        C884   1.391       .  A
C884        C885   1.430       .  A
C885        C886   1.414       .  A
C885        N892   1.426       .  S
C886        C887   1.400       .  A
C886        H891   1.083       .  S
C888        N889   1.422       .  S
N889        O893   1.262       .  A
N889        O894   1.260       .  A
N892        O896   1.262       .  A
N892        O895   1.262       .  A
C897        C898   1.411       .  A
C897        C902   1.406       .  A
C897        H904   1.083       .  S
C898        C899   1.413       .  A
C899        C900   1.385       .  A
C899       N2138   1.422       .  S
C900        C901   1.387       .  A
C900       H2137   1.084       .  S
C901        C902   1.405       .  A
C902        N903   1.429       .  S
N903        O907   1.261       .  A
N903        O908   1.263       .  A
H905       C2132   1.084       .  S
N906       C2131   1.426       .  S
N906        O910   1.262       .  A
N906        O909   1.262       .  A
C911        C912   1.410       .  A
C911        C916   1.398       .  A
C911        H918   1.084       .  S
C912       C2145   1.400       .  A
C913       C2144   1.409       .  A
C913        C914   1.386       .  A
C913        N920   1.431       .  S
C914       C2147   1.408       .  A
C914        H919   1.084       .  S
C915       C2146   1.406       .  A
C915        C916   1.393       .  A
C916        N917   1.425       .  S
N917        O921   1.260       .  A
N917        O922   1.262       .  A
N920        O924   1.262       .  A
N920        O923   1.262       .  A
C925        C926   1.553       .  S
C925        C931   1.552       .  S
C925        C929   1.583       .  S
C925       C1044   1.630       .  S
C926        H933   1.078       .  S
C926        C927   1.376       .  D
C927        C928   1.612       .  S
C927        C986   1.586       .  S
C928        C932   1.616       .  S
C928        C930   1.599       .  S
C928        H934   1.110       .  S
C929        H935   1.085       .  S
C929        C930   1.400       .  D
C930        C960   1.594       .  S
C931        H936   1.085       .  S
C931        C932   1.379       .  D
C932       C1018   1.581       .  S
C937        C938   1.542       .  S
C937        C943   1.551       .  S
C937        C941   1.573       .  S
C937       C1064   1.610       .  S
C938        H945   1.085       .  S
C938        C939   1.375       .  D
C939        C940   1.642       .  S
C939       C1033   1.596       .  S
C940        C944   1.624       .  S
C940        C942   1.633       .  S
C940        H946   1.110       .  S
C941        H947   1.085       .  S
C941        C942   1.384       .  D
C942        C975   1.622       .  S
C943        H948   1.087       .  S
C943        C944   1.386       .  D
C944       C1006   1.592       .  S
O949        C957   1.273       .  A
O949      Co1585   1.967   1_455  S
O950        C958   1.286       .  A
O950      Co2202   2.002   1_565  S
O952        C960   1.280       .  A
O953        C959   1.243       .  A
O953       Co970   1.976   1_465  S
O954        C960   1.296       .  A
O955        C958   1.280       .  A
O955       Co972   1.968       .  S
O956        C957   1.311       .  A
C957       C1178   1.508       .  S
C958       C1209   1.463       .  S
C959       C1167   1.460       .  S
O961        C974   1.253       .  A
O961       Co969   1.953       .  S
O962        C975   1.300       .  A
O963        C976   1.298       .  A
O963       Co971   2.075   1_556  S
O964       Co972   1.963       .  S
O965      Co2202   2.008       .  S
O966       C2208   1.280       .  A
O966       Co969   1.868       .  S
O967        C974   1.270       .  A
O968        C975   1.306       .  A
Co969      O1565   1.957       .  S
Co970      O2182   2.014   1_545  S
Co970      O2197   2.022       .  S
Co970      O1897   2.066   1_545  S
Co971      O1589   2.105   1_454  S
O973      Co1894   1.990   1_566  S
O973      Co1587   2.154   1_565  S
C974       C1150   1.473       .  S
C976       O2198   1.282       .  A
C976       C1220   1.464       .  S
C977       C1195   1.495       .  S
O978        C986   1.297       .  A
O978       Co998   2.119       .  S
O979        C987   1.265       .  A
O979       Co999   1.996       .  S
O980        C988   1.283       .  A
O981        C989   1.283       .  A
O982        C988   1.268       .  A
O982       Co999   1.982       .  S
O983        C989   1.289       .  A
O983       Co998   2.049       .  S
O984        C987   1.263       .  A
O984      Co1001   1.966       .  S
O985        C986   1.294       .  A
O985      Co1000   2.033       .  S
C987       C1136   1.474       .  S
C988       C1097   1.498       .  S
C989       C1153   1.475       .  S
O990       C1003   1.260       .  A
O990       Co998   1.971       .  S
O991       C1004   1.278       .  A
O991       Co999   1.981       .  S
O992       C1005   1.251       .  A
O992      Co1000   1.962       .  S
O993       C1006   1.275       .  A
O993      Co1001   2.048       .  S
O994       C1006   1.282       .  A
O994       Co999   2.080       .  S
O995       C1005   1.253       .  A
O995       Co998   1.977       .  S
O996       C1003   1.269       .  A
O997      Co1000   2.036   1_554  S
Co998      O1002   2.156   1_556  S
Co1000     O1002   1.987   1_556  S
C1003      C1111   1.472       .  S
C1004      C1164   1.481       .  S
C1005      C1122   1.452       .  S
O1007      C1015   1.270       .  A
O1007     Co2259   1.955   1_455  S
O1008      C1016   1.298       .  A
O1008     Co2260   2.065       .  S
O1009      C1017   1.243       .  A
O1009     Co1029   1.929       .  S
O1010      C1018   1.301       .  A
O1010     Co1030   2.119       .  S
O1011      C1017   1.251       .  A
O1011     Co1028   1.990   1_455  S
O1012      C1018   1.279       .  A
O1012     Co1027   2.039       .  S
O1013      C1016   1.269       .  A
O1013     Co1030   1.959       .  S
O1014      C1015   1.293       .  A
O1014     Co1029   2.017       .  S
C1015      C1125   1.449       .  S
C1016      C1206   1.481       .  S
C1017      C1080   1.438       .  S
O1019      C1032   1.259       .  A
O1019     Co1027   2.001       .  S
O1020      C1033   1.294       .  A
O1020     Co1028   2.112   1_455  S
O1021      C1034   1.262       .  A
O1021     Co1029   1.963       .  S
O1022      C1035   1.274       .  A
O1022     Co1030   1.841       .  S
O1023      C1035   1.310       .  A
O1023     Co2260   2.124       .  S
O1024      C2266   1.267       .  A
O1024     Co1027   1.973       .  S
O1025      C1032   1.252       .  A
O1025     Co1030   1.980       .  S
O1026      C1033   1.302       .  A
O1026     Co1029   2.050       .  S
Co1027     O2239   1.954       .  S
Co1027     O1031   2.074       .  S
Co1028     O2240   1.923       .  S
Co1028     O2255   2.042       .  S
Co1028     O2263   2.163       .  S
Co1029     O2263   1.972   1_455  S
Co1030     O1031   1.871       .  S
O1031     Co2260   2.125       .  S
O1031     Co2261   2.055       .  S
C1032      C1066   1.468       .  S
C1034      O2256   1.264       .  A
C1034      C1223   1.465       .  S
C1035      C1139   1.473       .  S
O1036      C1044   1.299       .  A
O1037      C1045   1.267       .  A
O1038      C1046   1.275       .  A
O1038     Co1058   2.009       .  S
O1039      C1047   1.277       .  A
O1039     Co1059   1.871       .  S
O1040      C1046   1.270       .  A
O1040     Co1057   2.007       .  S
O1041      C1047   1.308       .  A
O1041     Co1056   2.104       .  S
O1042      C1045   1.260       .  A
O1042     Co1059   2.017       .  S
O1043      C1044   1.302       .  A
O1043     Co1058   2.048       .  S
C1045      C1192   1.518       .  S
C1046      C1094   1.503       .  S
C1047      C1069   1.471       .  S
O1048      C1061   1.306       .  A
O1048     Co1056   2.114       .  S
O1049      C1062   1.259       .  A
O1049     Co1057   1.941       .  S
O1050      C1063   1.251       .  A
O1050     Co1058   2.001       .  S
O1051      C1064   1.303       .  A
O1051     Co1059   2.128       .  S
O1052      C1064   1.273       .  A
O1053      C1063   1.259       .  A
O1054      C1061   1.269       .  A
O1054     Co1059   1.969       .  S
O1055      C1062   1.293       .  A
O1055     Co1058   2.029       .  S
Co1057     O1060   2.047       .  S
Co1058     O1060   1.998       .  S
C1061      C1108   1.503       .  S
C1062      C1083   1.468       .  S
C1063      C1181   1.494       .  S
C1065      C1066   1.390       .  A
C1065      C1070   1.396       .  A
C1065      H1072   1.085       .  S
C1066      C1067   1.411       .  A
C1067      C1068   1.396       .  A
C1067      N1074   1.416       .  S
C1068      C1069   1.391       .  A
C1068      H1073   1.084       .  S
C1069      C1070   1.412       .  A
C1070      N1071   1.419       .  S
N1071      O1075   1.258       .  A
N1071      O1076   1.261       .  A
N1074      O1078   1.261       .  A
N1074      O1077   1.260       .  A
C1079      C1080   1.389       .  A
C1079      C1084   1.395       .  A
C1079      H1086   1.084       .  S
C1080      C1081   1.399       .  A
C1081      C1082   1.380       .  A
C1081      N1088   1.424       .  S
C1082      C1083   1.387       .  A
C1082      H1087   1.074       .  S
C1083      C1084   1.428       .  A
C1084      N1085   1.427       .  S
N1085      O1089   1.262       .  A
N1085      O1090   1.261       .  A
N1088      O1092   1.262       .  A
N1088      O1091   1.259       .  A
C1093      C1094   1.416       .  A
C1093      C1098   1.418       .  A
C1093      H1100   1.083       .  S
C1094      C1095   1.421       .  A
C1095      C1096   1.405       .  A
C1095      N1102   1.427       .  S
C1096      C1097   1.400       .  A
C1096      H1101   1.084       .  S
C1097      C1098   1.402       .  A
C1098      N1099   1.424       .  S
N1099      O1103   1.262       .  A
N1099      O1104   1.260       .  A
N1102      O1106   1.260       .  A
N1102      O1105   1.260       .  A
C1107      C1108   1.409       .  A
C1107      C1112   1.409       .  A
C1107      H1114   1.083       .  S
C1108      C1109   1.414       .  A
C1109      C1110   1.390       .  A
C1109      N1116   1.412       .  S
C1110      C1111   1.384       .  A
C1110      H1115   1.085       .  S
C1111      C1112   1.415       .  A
C1112      N1113   1.425       .  S
N1113      O1117   1.261       .  A
N1113      O1118   1.260       .  A
N1116      O1120   1.261       .  A
N1116      O1119   1.261       .  A
C1121      C1122   1.396       .  A
C1121      C1126   1.390       .  A
C1121      H1128   1.085       .  S
C1122      C1123   1.407       .  A
C1123      C1124   1.386       .  A
C1123      N1130   1.419       .  S
C1124      C1125   1.388       .  A
C1124      H1129   1.084       .  S
C1125      C1126   1.414       .  A
C1126      N1127   1.433       .  S
N1127      O1131   1.263       .  A
N1127      O1132   1.262       .  A
N1130      O1134   1.259       .  A
N1130      O1133   1.262       .  A
C1135      C1136   1.403       .  A
C1135      C1140   1.401       .  A
C1135      H1142   1.081       .  S
C1136      C1137   1.410       .  A
C1137      C1138   1.391       .  A
C1137      N1144   1.425       .  S
C1138      C1139   1.401       .  A
C1138      H1143   1.085       .  S
C1139      C1140   1.410       .  A
C1140      N1141   1.431       .  S
N1141      O1145   1.261       .  A
N1141      O1146   1.262       .  A
N1144      O1148   1.262       .  A
N1144      O1147   1.261       .  A
C1149      C1150   1.395       .  A
C1149      C1154   1.393       .  A
C1149      H1156   1.085       .  S
C1150      C1151   1.399       .  A
C1151      C1152   1.399       .  A
C1151      N1158   1.421       .  S
C1152      C1153   1.406       .  A
C1152      H1157   1.085       .  S
C1153      C1154   1.418       .  A
C1154      N1155   1.427       .  S
N1155      O1159   1.262   1_556  A
N1155      O1160   1.262       .  A
N1158      O1162   1.261       .  A
N1158      O1161   1.261       .  A
C1163      C1168   1.400       .  A
C1163      H1170   1.085       .  S
C1164      C1165   1.420       .  A
C1165      C1166   1.396       .  A
C1165      N1172   1.423       .  S
C1166      C1167   1.390       .  A
C1166      H1171   1.084       .  S
C1168      N1169   1.437       .  S
N1169      O1173   1.263       .  A
N1172      O1176   1.262       .  A
N1172      O1175   1.262       .  A
C1177      C1178   1.405       .  A
C1177      C1182   1.410       .  A
C1177      H1184   1.081       .  S
C1178      C1179   1.422       .  A
C1179      C1180   1.405       .  A
C1180      C1181   1.391       .  A
C1180      H1185   1.083       .  S
C1181      C1182   1.418       .  A
C1182      N1183   1.431       .  S
N1183      O1187   1.261       .  A
N1183      O1188   1.263       .  A
N1186      O1190   1.262       .  A
C1191      C1192   1.393       .  A
C1192      C1193   1.433       .  A
C1193      C1194   1.427       .  A
C1193      N1200   1.434       .  S
C1194      C1195   1.401       .  A
C1194      H1199   1.081       .  S
C1196      N1197   1.404       .  S
N1197      O1201   1.262       .  A
N1197      O1202   1.259       .  A
N1200      O1204   1.260       .  A
N1200      O1203   1.263       .  A
C1205      C1206   1.411       .  A
C1205      C1210   1.402       .  A
C1205      H1212   1.083       .  S
C1206      C1207   1.422       .  A
C1207      C1208   1.386       .  A
C1207      N2446   1.431       .  S
C1208      C1209   1.383       .  A
C1208      H2445   1.073       .  S
C1209      C1210   1.400       .  A
C1210      N1211   1.425       .  S
N1211      O1215   1.261       .  A
N1211      O1216   1.261       .  A
H1213      C2440   1.083       .  S
N1214      C2439   1.429       .  S
N1214      O1218   1.263       .  A
N1214      O1217   1.261       .  A
C1219      C1220   1.402       .  A
C1219      C1224   1.394       .  A
C1219      H1226   1.084       .  S
C1220      C2453   1.412       .  A
C1221      C2452   1.402       .  A
C1221      C1222   1.392       .  A
C1221      N1228   1.442       .  S
C1222      C2455   1.411       .  A
C1222      H1227   1.081       .  S
C1223      C2454   1.402       .  A
C1223      C1224   1.406       .  A
C1224      N1225   1.427       .  S
N1225      O1229   1.261       .  A
N1225      O1230   1.259       .  A
N1228      O1232   1.261       .  A
N1228      O1231   1.263       .  A
C1233      C1234   1.564       .  S
C1233      C1239   1.549       .  S
C1233      C1237   1.590       .  S
C1233      C1352   1.639       .  S
C1234      H1241   1.085       .  S
C1234      C1235   1.387       .  D
C1235      C1236   1.624       .  S
C1235      C1294   1.608       .  S
C1236      C1240   1.637       .  S
C1236      C1238   1.627       .  S
C1236      H1242   1.110       .  S
C1237      H1243   1.085       .  S
C1237      C1238   1.400       .  D
C1238      C1268   1.632       .  S
C1239      H1244   1.083       .  S
C1239      C1240   1.376       .  D
C1240      C1326   1.601       .  S
C1245      C1246   1.530       .  S
C1245      C1251   1.551       .  S
C1245      C1249   1.571       .  S
C1245      C1372   1.591       .  S
C1246      H1253   1.085       .  S
C1246      C1247   1.371       .  D
C1247      C1248   1.628       .  S
C1247      C1341   1.579       .  S
C1248      C1252   1.629       .  S
C1248      C1250   1.627       .  S
C1248      H1254   1.109       .  S
C1249      H1255   1.086       .  S
C1249      C1250   1.384       .  D
C1250      C1283   1.614       .  S
C1251      H1256   1.086       .  S
C1251      C1252   1.381       .  D
C1252      C1314   1.593       .  S
O1257      C1265   1.275       .  A
O1258      C1266   1.282       .  A
O1259      C1575   1.264       .  A
O1259     Co1895   2.001       .  S
O1260      C1268   1.281       .  A
O1260     Co1588   2.063       .  S
O1261      C1267   1.245       .  A
O1261     Co1278   1.989       .  S
O1262      C1268   1.310       .  A
O1262     Co1893   2.172       .  S
O1263      C1266   1.282       .  A
O1263     Co1280   1.964   1_554  S
O1264      C1265   1.314       .  A
O1264     Co1895   2.139       .  S
C1265      C1486   1.502       .  S
C1266      C1517   1.460       .  S
C1267      O1567   1.260   1_554  A
C1267      C1475   1.445       .  S
O1269      C1282   1.252       .  A
O1269     Co1277   1.960   1_545  S
O1270      C1283   1.297       .  A
O1270     Co1894   2.049       .  S
O1271      C1284   1.292       .  A
O1271     Co1279   2.031       .  S
O1272      C1901   1.264       .  A
O1272     Co1280   1.975   1_554  S
O1273      C1901   1.277       .  A
O1274     Co1277   1.844   1_445  S
O1275      C1282   1.262   1_565  A
O1275     Co2204   2.003       .  S
O1276      C1283   1.307       .  A
O1276     Co1587   2.155   1_554  S
Co1277     O1878   2.121       .  S
Co1277     O1897   1.899       .  S
Co1278     O1886   2.086       .  S
Co1279     O1875   1.940   1_545  S
Co1279     O1880   1.989   1_545  S
Co1279     O1584   2.170       .  S
Co1280     O1568   2.061       .  S
Co1280     O2199   2.009       .  S
Co1280     O1589   2.050       .  S
O1281     Co1893   1.947       .  S
O1281     Co1588   2.069       .  S
C1282      C1458   1.461       .  S
C1284      C1528   1.458       .  S
C1285      O1888   1.255       .  A
C1285      O1889   1.287       .  A
C1285      C1503   1.499       .  S
O1286      C1294   1.308       .  A
O1286     Co1306   2.155       .  S
O1287      C1295   1.270       .  A
O1287     Co1307   2.027       .  S
O1288      C1296   1.277       .  A
O1288     Co1616   2.024   1_554  S
O1289      C1297   1.280       .  A
O1289     Co1617   1.889       .  S
O1290      C1296   1.267       .  A
O1290     Co1307   1.995       .  S
O1291      C1297   1.288       .  A
O1291     Co1306   2.013       .  S
O1292      C1295   1.256       .  A
O1292     Co1309   1.960       .  S
O1293      C1294   1.294       .  A
O1293     Co1308   2.037       .  S
C1295      C1444   1.485       .  S
C1296      C1405   1.505       .  S
C1297      C1461   1.434       .  S
O1298      C1311   1.263       .  A
O1298     Co1306   1.986       .  S
O1299      C1312   1.279       .  A
O1299     Co1307   1.977       .  S
O1300      C1313   1.263       .  A
O1300     Co1308   2.008       .  S
O1301      C1314   1.304       .  A
O1301     Co1309   2.129       .  S
O1302      C1314   1.281       .  A
O1302     Co1307   2.054       .  S
O1303      C1313   1.245       .  A
O1303     Co1306   1.952       .  S
O1304      C1311   1.270       .  A
O1304     Co1617   1.996       .  S
O1305      C1620   1.280       .  A
O1305     Co1308   2.004       .  S
Co1306     O1310   2.164       .  S
Co1307     O1618   2.064       .  S
Co1308     O1596   2.017       .  S
Co1308     O1310   1.999       .  S
Co1309     O1597   1.895   1_554  S
Co1309     O1612   1.950   1_554  S
Co1309     O1618   1.896       .  S
O1310     Co1615   2.075       .  S
O1310     Co1617   1.938       .  S
C1311      C1419   1.480       .  S
C1312      O1613   1.288       .  A
C1312      C1472   1.463       .  S
C1313      C1430   1.469       .  S
O1315      C1323   1.281       .  A
O1316      C1324   1.250       .  A
O1317      C1325   1.241       .  A
O1317     Co1337   1.940       .  S
O1318      C1326   1.310       .  A
O1318     Co1338   2.152       .  S
O1319      C1325   1.273       .  A
O1319     Co1336   2.039       .  S
O1320      C1326   1.275       .  A
O1320     Co1335   2.038       .  S
O1321      C1324   1.269       .  A
O1321     Co1338   1.975       .  S
O1322      C1323   1.296       .  A
O1322     Co1337   2.040       .  S
C1323      C1433   1.479       .  S
C1324      C1514   1.440       .  S
C1325      C1388   1.456       .  S
O1327      C1340   1.273       .  A
O1327     Co1335   2.048       .  S
O1328      C1341   1.301       .  A
O1328     Co1336   2.074       .  S
O1329      C1342   1.257       .  A
O1329     Co1337   1.968       .  S
O1330      C1343   1.286       .  A
O1330     Co1338   1.909       .  S
O1331      C1343   1.291       .  A
O1332     Co1335   1.908   1_455  S
O1333      C1340   1.254       .  A
O1333     Co1338   1.981       .  S
O1334      C1341   1.310       .  A
O1334     Co1337   2.058       .  S
Co1335     O1339   2.066       .  S
Co1338     O1339   1.919       .  S
C1340      C1374   1.487       .  S
C1342      C1531   1.471       .  S
C1343      C1447   1.476       .  S
O1344      C1352   1.299       .  A
O1344     Co1980   2.119       .  S
O1345      C1353   1.265       .  A
O1345     Co1981   2.000   1_545  S
O1346      C1354   1.271       .  A
O1346     Co1366   1.993       .  S
O1347      C1355   1.276       .  A
O1347     Co1367   1.881       .  S
O1348      C1354   1.269       .  A
O1348     Co1365   1.985       .  S
O1349      C1355   1.310       .  A
O1349     Co1364   2.110   1_545  S
O1350      C1353   1.257       .  A
O1350     Co1367   1.994       .  S
O1351      C1352   1.303       .  A
O1351     Co1366   2.059       .  S
C1353      C1500   1.502       .  S
C1354      C1402   1.486       .  S
C1355      C1377   1.490       .  S
O1356      C1369   1.305       .  A
O1356     Co1364   2.115   1_545  S
O1357      C1370   1.267       .  A
O1357     Co1365   1.956       .  S
O1358      C1371   1.254       .  A
O1358     Co1366   1.994       .  S
O1359      C1372   1.299       .  A
O1359     Co1367   2.118       .  S
O1360      C1372   1.267       .  A
O1360     Co1981   1.994   1_545  S
O1361      C1371   1.259       .  A
O1361     Co1980   1.982       .  S
O1362      C1369   1.272       .  A
O1362     Co1367   1.966       .  S
O1363      C1370   1.291       .  A
O1363     Co1366   2.043       .  S
Co1364     O1960   2.054       .  S
Co1364     O1977   2.028       .  S
Co1364     O1984   2.090       .  S
Co1365     O1961   2.005       .  S
Co1365     O1976   2.031       .  S
Co1365     O1368   2.068       .  S
Co1366     O1368   2.012       .  S
Co1367     O1984   1.910   1_545  S
O1368     Co1983   1.958       .  S
O1368     Co1980   2.144       .  S
C1369      C1416   1.502       .  S
C1370      C1391   1.487       .  S
C1371      C1489   1.479       .  S
C1373      C1374   1.391       .  A
C1373      C1378   1.397       .  A
C1373      H1380   1.085       .  S
C1374      C1375   1.423       .  A
C1375      C1376   1.406       .  A
C1375      N1382   1.423       .  S
C1376      C1377   1.399       .  A
C1376      H1381   1.084       .  S
C1377      C1378   1.413       .  A
C1378      N1379   1.417       .  S
N1379      O1383   1.258       .  A
N1379      O1384   1.261       .  A
N1382      O1386   1.262       .  A
N1382      O1385   1.262       .  A
C1387      C1388   1.375       .  A
C1387      C1392   1.389       .  A
C1387      H1394   1.084       .  S
C1388      C1389   1.411       .  A
C1389      C1390   1.405       .  A
C1389      N1396   1.436       .  S
C1390      C1391   1.401       .  A
C1390      H1395   1.086       .  S
C1391      C1392   1.428       .  A
C1392      N1393   1.422       .  S
N1393      O1397   1.261       .  A
N1393      O1398   1.260       .  A
N1396      O1400   1.260       .  A
N1396      O1399   1.261       .  A
C1401      C1402   1.400       .  A
C1401      C1406   1.406       .  A
C1401      H1408   1.084       .  S
C1402      C1403   1.413       .  A
C1403      C1404   1.409       .  A
C1403      N1410   1.427       .  S
C1404      C1405   1.409       .  A
C1404      H1409   1.083       .  S
C1405      C1406   1.417       .  A
C1406      N1407   1.422       .  S
N1407      O1411   1.261       .  A
N1407      O1412   1.262       .  A
N1410      O1414   1.262       .  A
N1410      O1413   1.261       .  A
C1415      C1416   1.401       .  A
C1415      C1420   1.401       .  A
C1415      H1422   1.084       .  S
C1416      C1417   1.420       .  A
C1417      C1418   1.399       .  A
C1417      N1424   1.418       .  S
C1418      C1419   1.391       .  A
C1418      H1423   1.085       .  S
C1419      C1420   1.414       .  A
C1420      N1421   1.422       .  S
N1421      O1425   1.260       .  A
N1421      O1426   1.259       .  A
N1424      O1428   1.261       .  A
N1424      O1427   1.260       .  A
C1429      C1430   1.391       .  A
C1429      C1434   1.393       .  A
C1429      H1436   1.084       .  S
C1430      C1431   1.414       .  A
C1431      C1432   1.403       .  A
C1431      N1438   1.428       .  S
C1432      C1433   1.400       .  A
C1432      H1437   1.083       .  S
C1433      C1434   1.418       .  A
C1434      N1435   1.426       .  S
N1435      O1439   1.261       .  A
N1435      O1440   1.260       .  A
N1438      O1442   1.259       .  A
N1438      O1441   1.260       .  A
C1443      C1444   1.408       .  A
C1443      C1448   1.404       .  A
C1443      H1450   1.082       .  S
C1444      C1445   1.410       .  A
C1445      C1446   1.388       .  A
C1445      N1452   1.420       .  S
C1446      C1447   1.389       .  A
C1446      H1451   1.079       .  S
C1447      C1448   1.421       .  A
C1448      N1449   1.434       .  S
N1449      O1453   1.262       .  A
N1449      O1454   1.262       .  A
N1452      O1456   1.258       .  A
N1452      O1455   1.262       .  A
C1457      C1458   1.403       .  A
C1457      C1462   1.395       .  A
C1457      H1464   1.081       .  S
C1458      C1459   1.405       .  A
C1459      C1460   1.388       .  A
C1459      N1466   1.423       .  S
C1460      C1461   1.394       .  A
C1460      H1465   1.083       .  S
C1461      C1462   1.410       .  A
C1462      N1463   1.449       .  S
N1463      O1467   1.260       .  A
N1463      O1468   1.262       .  A
N1466      O1470   1.262       .  A
N1466      O1469   1.261       .  A
C1471      C1780   1.401       .  A
C1471      C1476   1.393       .  A
C1471      H1478   1.085       .  S
C1472      C1779   1.398       .  A
C1472      C1473   1.411       .  A
C1473      C1474   1.400       .  A
C1473      N1480   1.432       .  S
C1474      C1475   1.394       .  A
C1474      H1479   1.082       .  S
C1475      C1784   1.405       .  A
C1476      C1783   1.404       .  A
C1476      N1477   1.421       .  S
N1477      O1481   1.257       .  A
N1477      O1790   1.259       .  A
N1480      O1484   1.262       .  A
N1480      O1483   1.262       .  A
O1482      N1785   1.260       .  A
C1485      C1486   1.405       .  A
C1485      C1490   1.401       .  A
C1485      H1492   1.082       .  S
C1486      C1487   1.422       .  A
C1487      C1488   1.400       .  A
C1487      N2110   1.421       .  S
C1488      C1489   1.392       .  A
C1488      H1493   1.084       .  S
C1489      C1490   1.411       .  A
C1490      N1491   1.424       .  S
N1491      O1495   1.262       .  A
N1491      O1496   1.262       .  A
N1494      C2103   1.418       .  S
N1494      O1498   1.262       .  A
N1494      O2113   1.261       .  A
O1497      N2110   1.262       .  A
C1499      C1500   1.395       .  A
C1499      C2120   1.399       .  A
C1499      H2122   1.084       .  S
C1500      C1501   1.421       .  A
C1501      C1502   1.415       .  A
C1501      N1508   1.428       .  S
C1502      C1503   1.403       .  A
C1502      H1507   1.084       .  S
C1503      C2120   1.429       .  A
C1504      C2115   1.389       .  A
C1504      C2119   1.405       .  A
C1504      N1505   1.411       .  S
N1505      O1509   1.260       .  A
N1505      O1510   1.260       .  A
H1506      C2115   1.083       .  S
N1508      O1512   1.262       .  A
N1508      O1511   1.261       .  A
C1513      C1514   1.388       .  A
C1513      C1518   1.393       .  A
C1513      H1520   1.083       .  S
C1514      C1515   1.412       .  A
C1515      C1516   1.370       .  A
C1516      C1517   1.388       .  A
C1517      C1518   1.413       .  A
C1518      N1519   1.423       .  S
N1519      O1523   1.261       .  A
N1519      O1524   1.262       .  A
N1522      O1526   1.261       .  A
N1522      O1525   1.262       .  A
C1527      C1528   1.403       .  A
C1527      C1532   1.396       .  A
C1527      H1534   1.084       .  S
C1529      C1530   1.355       .  A
C1529      N1536   1.418   1_455  S
C1530      H1535   1.086   1_455  S
C1531      C1532   1.410       .  A
C1532      N1533   1.429       .  S
N1533      O1537   1.260       .  A
N1533      O1538   1.262       .  A
N1536      O1540   1.257       .  A
N1536      O1539   1.262   1_655  A
C1541      C1542   1.551       .  S
C1541      C1547   1.549       .  S
C1541      C1545   1.586       .  S
C1541      C1660   1.631       .  S
C1542      H1549   1.086       .  S
C1542      C1543   1.377       .  D
C1543      C1544   1.615       .  S
C1543      C1602   1.581       .  S
C1544      C1548   1.613       .  S
C1544      C1546   1.601       .  S
C1544      H1550   1.110       .  S
C1545      H1551   1.081       .  S
C1545      C1546   1.399       .  D
C1546      C1576   1.600       .  S
C1547      H1552   1.082       .  S
C1547      C1548   1.379       .  D
C1548      C1634   1.580       .  S
C1553      C1554   1.535       .  S
C1553      C1559   1.536       .  S
C1553      C1557   1.582       .  S
C1553      C1680   1.601       .  S
C1554      H1561   1.086       .  S
C1554      C1555   1.376       .  D
C1555      C1556   1.632       .  S
C1555      C1649   1.586       .  S
C1556      C1560   1.635       .  S
C1556      C1558   1.631       .  S
C1556      H1562   1.110       .  S
C1557      H1563   1.085       .  S
C1557      C1558   1.390       .  D
C1558      C1591   1.629       .  S
C1559      H1564   1.087       .  S
C1559      C1560   1.375       .  D
C1560      C1622   1.587       .  S
O1565      C1573   1.271       .  A
O1566      C1574   1.282       .  A
O1567     Co2203   1.973       .  S
O1568      C1576   1.287       .  A
O1569      C1575   1.243       .  A
O1569     Co1586   1.996       .  S
O1570      C1576   1.302       .  A
O1570     Co2201   2.126       .  S
O1571      C1574   1.284       .  A
O1571     Co1588   1.990       .  S
O1572      C1573   1.319       .  A
O1572     Co2203   2.164       .  S
C1573      C1794   1.506       .  S
C1574      C1825   1.478       .  S
C1575      C1783   1.457       .  S
O1577      C1590   1.256       .  A
O1577     Co1585   1.973   1_545  S
O1578      C1591   1.302       .  A
O1578     Co2202   2.059       .  S
O1579      C1592   1.296       .  A
O1579     Co1587   2.041       .  S
O1580      C2209   1.259       .  A
O1580     Co1588   1.944       .  S
O1581      C2209   1.276       .  A
O1582     Co1585   1.856   1_545  S
O1583      C1590   1.271       .  A
O1583     Co1896   2.027   1_545  S
O1584      C1591   1.313       .  A
Co1585     O2186   2.126       .  S
Co1585     O2205   1.896       .  S
Co1586     O2194   2.086       .  S
Co1587     O2183   1.961   1_546  S
Co1587     O2188   1.968       .  S
Co1588     O1891   2.041       .  S
O1589     Co2201   1.904       .  S
C1590      C1766   1.489       .  S
C1592      C1836   1.448       .  S
C1593      O2196   1.257   1_545  A
C1593      O2197   1.278       .  A
C1593      C1811   1.488       .  S
O1594      C1602   1.303       .  A
O1594     Co1614   2.071       .  S
O1595      C1603   1.259       .  A
O1595     Co1615   1.995       .  S
O1596      C1604   1.281       .  A
O1597      C1605   1.283       .  A
O1598      C1604   1.273       .  A
O1598     Co1615   2.003       .  S
O1599      C1605   1.300       .  A
O1599     Co1614   2.094       .  S
O1600      C1603   1.264       .  A
O1600     Co1617   1.986       .  S
O1601      C1602   1.310       .  A
O1601     Co1616   2.072       .  S
C1603      C1752   1.481       .  S
C1604      C1713   1.499       .  S
C1605      C1769   1.484       .  S
O1606      C1619   1.309       .  A
O1606     Co1614   2.130       .  S
O1607      C1620   1.275       .  A
O1607     Co1615   1.959       .  S
O1608      C1621   1.252       .  A
O1608     Co1616   1.998       .  S
O1609      C1622   1.297       .  A
O1609     Co1617   2.104       .  S
O1610      C1622   1.282       .  A
O1610     Co1615   2.066       .  S
O1611      C1621   1.271       .  A
O1611     Co1614   2.024       .  S
O1612      C1619   1.267       .  A
O1613     Co1616   2.014   1_554  S
Co1614     O1618   2.108   1_556  S
Co1616     O1618   2.065   1_556  S
C1619      C1727   1.498       .  S
C1620      C1780   1.460       .  S
C1621      C1738   1.474       .  S
O1623      C1631   1.276       .  A
O1624      C1632   1.300       .  A
O1625      C1633   1.238       .  A
O1625     Co1645   1.939       .  S
O1626      C1634   1.297       .  A
O1626     Co1646   2.109       .  S
O1627      C1633   1.279       .  A
O1627     Co1644   2.074       .  S
O1628      C1634   1.282       .  A
O1628     Co1643   2.047       .  S
O1629      C1632   1.270       .  A
O1629     Co1646   1.966       .  S
O1630      C1631   1.294       .  A
O1630     Co1645   2.038       .  S
C1631      C1741   1.474       .  S
C1632      C1822   1.488       .  S
C1633      C1696   1.478       .  S
O1635      C1648   1.256       .  A
O1635     Co1643   1.993       .  S
O1636      C1649   1.302       .  A
O1636     Co1644   2.082       .  S
O1637      C1650   1.259       .  A
O1637     Co1645   1.969       .  S
O1638      C1651   1.273       .  A
O1638     Co1646   1.834       .  S
O1639      C1651   1.307       .  A
O1640     Co1643   1.965   1_455  S
O1641      C1648   1.258       .  A
O1641     Co1646   1.989       .  S
O1642      C1649   1.309       .  A
O1642     Co1645   2.062       .  S
Co1643     O1647   2.078       .  S
Co1646     O1647   1.866       .  S
C1648      C1682   1.463       .  S
C1650      C1839   1.458       .  S
C1651      C1755   1.477       .  S
O1652      C1660   1.295       .  A
O1652     Co2288   2.105       .  S
O1653      C1661   1.269       .  A
O1653     Co2289   2.014   1_545  S
O1654      C1662   1.271       .  A
O1654     Co1674   2.003       .  S
O1655      C1663   1.284       .  A
O1655     Co1675   1.918       .  S
O1656      C1662   1.268       .  A
O1656     Co1673   1.999       .  S
O1657      C1663   1.294       .  A
O1657     Co1672   2.027       .  S
O1658      C1661   1.259       .  A
O1658     Co1675   2.009       .  S
O1659      C1660   1.303       .  A
O1659     Co1674   2.060       .  S
C1661      C1808   1.510       .  S
C1662      C1710   1.495       .  S
C1663      C1685   1.467       .  S
O1664      C1677   1.259       .  A
O1664     Co1672   1.959       .  S
O1665      C1678   1.266       .  A
O1665     Co1673   1.968       .  S
O1666      C1679   1.256       .  A
O1666     Co1674   2.006       .  S
O1667      C1680   1.305       .  A
O1667     Co1675   2.141       .  S
O1668      C1680   1.262       .  A
O1668     Co2289   1.990   1_545  S
O1669      C1679   1.258       .  A
O1669     Co2288   1.992       .  S
O1670      C1677   1.272       .  A
O1670     Co1675   1.994       .  S
O1671      C1678   1.299       .  A
O1671     Co1674   2.066       .  S
Co1672     O2268   2.127   1_545  S
Co1672     O2285   1.972   1_545  S
Co1672     O2292   2.136       .  S
Co1673     O2269   1.999       .  S
Co1673     O2284   2.020       .  S
Co1673     O1676   2.055       .  S
Co1674     O1676   2.000       .  S
Co1675     O2292   1.960       .  S
O1676     Co2291   1.958       .  S
O1676     Co2288   2.134       .  S
C1677      C1724   1.474       .  S
C1678      C1699   1.503       .  S
C1679      C1797   1.485       .  S
C1681      C1682   1.387       .  A
C1681      C1686   1.387       .  A
C1681      H1688   1.085       .  S
C1682      C1683   1.412       .  A
C1683      C1684   1.399       .  A
C1683      N1690   1.430       .  S
C1684      C1685   1.401       .  A
C1684      H1689   1.085       .  S
C1685      C1686   1.407       .  A
C1686      N1687   1.417       .  S
N1687      O1691   1.260       .  A
N1687      O1692   1.261       .  A
N1690      O1694   1.263       .  A
N1690      O1693   1.262       .  A
C1695      C1696   1.387       .  A
C1695      C1700   1.405       .  A
C1695      H1702   1.084       .  S
C1696      C1697   1.422       .  A
C1697      C1698   1.402       .  A
C1697      N1704   1.426       .  S
C1698      C1699   1.396       .  A
C1698      H1703   1.084       .  S
C1699      C1700   1.432       .  A
C1700      N1701   1.424       .  S
N1701      O1705   1.262       .  A
N1701      O1706   1.262       .  A
N1704      O1708   1.261       .  A
N1704      O1707   1.262       .  A
C1709      C1710   1.413       .  A
C1709      C1714   1.414       .  A
C1709      H1716   1.084       .  S
C1710      C1711   1.414       .  A
C1711      C1712   1.406       .  A
C1711      N1718   1.425       .  S
C1712      C1713   1.400       .  A
C1712      H1717   1.080       .  S
C1713      C1714   1.404       .  A
C1714      N1715   1.422       .  S
N1715      O1719   1.262       .  A
N1715      O1720   1.259       .  A
N1718      O1722   1.262       .  A
N1718      O1721   1.261       .  A
C1723      C1724   1.392       .  A
C1723      C1728   1.403       .  A
C1723      H1730   1.083       .  S
C1724      C1725   1.416       .  A
C1725      C1726   1.393       .  A
C1725      N1732   1.424       .  S
C1726      C1727   1.395       .  A
C1726      H1731   1.084       .  S
C1727      C1728   1.419       .  A
C1728      N1729   1.414       .  S
N1729      O1733   1.261       .  A
N1729      O1734   1.261       .  A
N1732      O1736   1.260       .  A
N1732      O1735   1.260       .  A
C1737      C1738   1.391       .  A
C1737      C1742   1.389       .  A
C1737      H1744   1.085       .  S
C1738      C1739   1.420       .  A
C1739      C1740   1.411       .  A
C1739      N1746   1.429       .  S
C1740      C1741   1.400       .  A
C1740      H1745   1.085       .  S
C1741      C1742   1.411       .  A
C1742      N1743   1.424       .  S
N1743      O1747   1.260       .  A
N1743      O1748   1.260       .  A
N1746      O1750   1.262       .  A
N1746      O1749   1.260       .  A
C1751      C1752   1.403       .  A
C1751      C1756   1.401       .  A
C1751      H1758   1.077       .  S
C1752      C1753   1.414       .  A
C1753      C1754   1.384       .  A
C1753      N1760   1.427       .  S
C1754      C1755   1.400       .  A
C1754      H1759   1.084       .  S
C1755      C1756   1.413       .  A
C1756      N1757   1.426       .  S
N1757      O1761   1.260       .  A
N1757      O1762   1.261       .  A
N1760      O1764   1.262       .  A
N1760      O1763   1.262       .  A
C1765      C1766   1.409       .  A
C1765      C1770   1.411       .  A
C1765      H1772   1.084       .  S
C1766      C1767   1.407       .  A
C1767      C1768   1.393       .  A
C1767      N1774   1.421       .  S
C1768      C1769   1.393       .  A
C1768      H1773   1.083       .  S
C1769      C1770   1.418       .  A
C1770      N1771   1.434       .  S
N1771      O1775   1.263       .  A
N1771      O1776   1.263       .  A
N1774      O1778   1.263       .  A
N1774      O1777   1.260       .  A
C1779      C1784   1.391       .  A
C1779      H1786   1.083       .  S
C1780      C1781   1.412       .  A
C1781      C1782   1.392       .  A
C1781      N1788   1.419       .  S
C1782      C1783   1.385       .  A
C1782      H1787   1.083       .  S
C1784      N1785   1.426       .  S
N1785      O1789   1.260   1_554  A
N1788      O1792   1.258       .  A
N1788      O1791   1.262       .  A
C1793      C1794   1.401       .  A
C1793      C1798   1.401       .  A
C1793      H1800   1.083       .  S
C1794      C1795   1.422       .  A
C1795      C1796   1.408       .  A
C1795      N2418   1.417       .  S
C1796      C1797   1.395       .  A
C1796      H1801   1.085       .  S
C1797      C1798   1.411       .  A
C1798      N1799   1.423       .  S
N1799      O1803   1.262       .  A
N1799      O1804   1.261       .  A
N1802      C2411   1.428       .  S
N1802      O1806   1.263       .  A
N1802      O2421   1.260       .  A
O1805      N2418   1.263       .  A
C1807      C1808   1.394       .  A
C1807      C2428   1.390       .  A
C1807      H2430   1.082       .  S
C1808      C1809   1.427       .  A
C1809      C1810   1.422       .  A
C1809      N1816   1.433       .  S
C1810      C1811   1.404       .  A
C1810      H1815   1.081       .  S
C1811      C2428   1.418       .  A
C1812      C2423   1.388       .  A
C1812      C2427   1.410       .  A
C1812      N1813   1.421       .  S
N1813      O1817   1.262       .  A
N1813      O1818   1.260       .  A
H1814      C2423   1.083       .  S
N1816      O1820   1.262       .  A
N1816      O1819   1.263       .  A
C1821      C1822   1.409       .  A
C1821      C1826   1.405       .  A
C1821      H1828   1.083       .  S
C1822      C1823   1.419       .  A
C1823      C1824   1.389       .  A
C1824      C1825   1.388       .  A
C1825      C1826   1.408       .  A
C1826      N1827   1.423       .  S
N1827      O1831   1.263       .  A
N1827      O1832   1.260       .  A
N1830      O1834   1.262       .  A
N1830      O1833   1.262       .  A
C1835      C1836   1.404       .  A
C1835      C1840   1.391       .  A
C1835      H1842   1.092       .  S
C1837      C1838   1.379       .  A
C1837      N1844   1.428       .  S
C1838      H1843   1.074       .  S
C1839      C1840   1.412       .  A
C1840      N1841   1.426       .  S
N1841      O1845   1.262       .  A
N1841      O1846   1.262       .  A
N1844      O1848   1.262       .  A
N1844      O1847   1.262       .  A
C1849      C1850   1.548       .  S
C1849      C1855   1.561       .  S
C1849      C1853   1.581       .  S
C1849      C1968   1.629       .  S
C1850      H1857   1.085       .  S
C1850      C1851   1.379       .  D
C1851      C1852   1.610       .  S
C1851      C1910   1.578       .  S
C1852      C1856   1.615       .  S
C1852      C1854   1.593       .  S
C1852      H1858   1.109       .  S
C1853      H1859   1.085       .  S
C1853      C1854   1.399       .  D
C1854      C1884   1.589       .  S
C1855      H1860   1.079       .  S
C1855      C1856   1.383       .  D
C1856      C1942   1.594       .  S
C1861      C1862   1.543       .  S
C1861      C1867   1.553       .  S
C1861      C1865   1.581       .  S
C1861      C1988   1.633       .  S
C1862      H1869   1.079       .  S
C1862      C1863   1.381       .  D
C1863      C1864   1.622       .  S
C1863      C1957   1.588       .  S
C1864      C1868   1.617       .  S
C1864      C1866   1.625       .  S
C1864      H1870   1.110       .  S
C1865      H1871   1.086       .  S
C1865      C1866   1.394       .  D
C1866      C1899   1.620       .  S
C1867      H1872   1.086       .  S
C1867      C1868   1.386       .  D
C1868      C1930   1.589       .  S
O1873      C1881   1.271       .  A
O1874      C1882   1.281       .  A
O1875      C2191   1.246       .  A
O1876      C1884   1.283       .  A
O1876     Co2204   2.049       .  S
O1877      C1883   1.251       .  A
O1877     Co1894   1.995   1_565  S
O1878      C1884   1.297       .  A
O1879      C1882   1.285       .  A
O1879     Co1896   1.971   1_554  S
O1880      C1881   1.269       .  A
C1881      C2102   1.472       .  S
C1882      C2133   1.461       .  S
C1883      O2183   1.247       .  A
C1883      C2091   1.458       .  S
O1885      C1898   1.253       .  A
O1885     Co1893   1.966       .  S
O1886      C1899   1.307       .  A
O1887      C1900   1.299       .  A
O1887     Co1895   2.080       .  S
O1888     Co1896   1.953   1_544  S
O1890     Co1893   1.878   1_455  S
O1891      C1898   1.272       .  A
O1892      C1899   1.317       .  A
O1892     Co2203   2.124   1_554  S
Co1895     O2200   2.092       .  S
Co1896     O2184   2.037       .  S
Co1896     O2205   2.057       .  S
O1897     Co2204   2.064       .  S
C1898      C2074   1.494       .  S
C1900      C2144   1.462       .  S
C1901      C2119   1.480       .  S
O1902      C1910   1.300       .  A
O1902     Co1922   2.061       .  S
O1903      C1911   1.259       .  A
O1903     Co1923   1.989       .  S
O1904      C1912   1.271       .  A
O1904     Co2232   1.984   1_554  S
O1905      C1913   1.281       .  A
O1905     Co2233   1.888       .  S
O1906      C1912   1.275       .  A
O1906     Co1923   2.002       .  S
O1907      C1913   1.304       .  A
O1907     Co1922   2.104       .  S
O1908      C1911   1.261       .  A
O1908     Co1925   1.976       .  S
O1909      C1910   1.312       .  A
O1909     Co1924   2.084       .  S
C1911      C2060   1.474       .  S
C1912      C2021   1.483       .  S
C1913      C2077   1.481       .  S
O1914      C1927   1.303       .  A
O1914     Co1922   2.113       .  S
O1915      C1928   1.280       .  A
O1915     Co1923   1.976       .  S
O1916      C1929   1.246       .  A
O1916     Co1924   1.980       .  S
O1917      C1930   1.296       .  A
O1917     Co1925   2.101       .  S
O1918      C1930   1.290       .  A
O1918     Co1923   2.080       .  S
O1919      C1929   1.269       .  A
O1919     Co1922   2.016       .  S
O1920      C1927   1.270       .  A
O1920     Co2233   1.967       .  S
O1921      C2236   1.282       .  A
O1921     Co1924   2.016       .  S
Co1922     O1926   2.112       .  S
Co1923     O2234   2.067       .  S
Co1924     O2212   2.009       .  S
Co1924     O1926   2.071       .  S
Co1925     O2213   1.897   1_554  S
Co1925     O2228   2.001   1_554  S
Co1925     O2234   1.938       .  S
O1926     Co2231   2.058       .  S
O1926     Co2233   1.903       .  S
C1927      C2035   1.500       .  S
C1928      O2229   1.281       .  A
C1928      C2088   1.466       .  S
C1929      C2046   1.464       .  S
O1931      C1939   1.274       .  A
O1932      C1940   1.257       .  A
O1933      C1941   1.239       .  A
O1933     Co1953   1.928       .  S
O1934      C1942   1.298       .  A
O1934     Co1954   2.125       .  S
O1935      C1941   1.270       .  A
O1935     Co1952   2.024       .  S
O1936      C1942   1.281       .  A
O1936     Co1951   2.051       .  S
O1937      C1940   1.266       .  A
O1937     Co1954   1.960       .  S
O1938      C1939   1.295       .  A
O1938     Co1953   2.035       .  S
C1939      C2049   1.466       .  S
C1940      C2130   1.440       .  S
C1941      C2004   1.448       .  S
O1943      C1956   1.267       .  A
O1943     Co1951   2.021       .  S
O1944      C1957   1.307       .  A
O1944     Co1952   2.084       .  S
O1945      C1958   1.266       .  A
O1945     Co1953   1.988       .  S
O1946      C1959   1.277       .  A
O1946     Co1954   1.869       .  S
O1947      C1959   1.290       .  A
O1948     Co1951   1.904   1_455  S
O1949      C1956   1.248       .  A
O1949     Co1954   1.963       .  S
O1950      C1957   1.311       .  A
O1950     Co1953   2.064       .  S
Co1951     O1955   2.065       .  S
Co1954     O1955   1.889       .  S
C1956      C1990   1.461       .  S
C1958      C2147   1.481       .  S
C1959      C2063   1.457       .  S
O1960      C1968   1.301       .  A
O1961      C1969   1.266       .  A
O1962      C1970   1.273       .  A
O1962     Co1982   2.006       .  S
O1963      C1971   1.281       .  A
O1963     Co1983   1.912       .  S
O1964      C1970   1.266       .  A
O1964     Co1981   1.998       .  S
O1965      C1971   1.297       .  A
O1965     Co1980   2.048       .  S
O1966      C1969   1.250       .  A
O1966     Co1983   1.994       .  S
O1967      C1968   1.319       .  A
O1967     Co1982   2.104       .  S
C1969      C2116   1.495       .  S
C1970      C2018   1.503       .  S
C1971      C1993   1.470       .  S
O1972      C1985   1.263       .  A
O1972     Co1980   1.972       .  S
O1973      C1986   1.259       .  A
O1973     Co1981   1.941       .  S
O1974      C1987   1.245       .  A
O1974     Co1982   1.983       .  S
O1975      C1988   1.308       .  A
O1975     Co1983   2.154       .  S
O1976      C1988   1.275       .  A
O1977      C1987   1.271       .  A
O1978      C1985   1.280       .  A
O1978     Co1983   2.006       .  S
O1979      C1986   1.296       .  A
O1979     Co1982   2.042       .  S
Co1981     O1984   2.054       .  S
Co1982     O1984   2.070       .  S
C1985      C2032   1.485       .  S
C1986      C2007   1.474       .  S
C1987      C2105   1.468       .  S
C1989      C1990   1.388       .  A
C1989      C1994   1.391       .  A
C1989      H1996   1.084       .  S
C1990      C1991   1.414       .  A
C1991      C1992   1.396       .  A
C1991      N1998   1.423       .  S
C1992      C1993   1.396       .  A
C1992      H1997   1.083       .  S
C1993      C1994   1.406       .  A
C1994      N1995   1.412       .  S
N1995      O1999   1.260       .  A
N1995      O2000   1.261       .  A
N1998      O2002   1.261       .  A
N1998      O2001   1.262       .  A
C2003      C2004   1.388       .  A
C2003      C2008   1.396       .  A
C2003      H2010   1.082       .  S
C2004      C2005   1.410       .  A
C2005      C2006   1.384       .  A
C2005      N2012   1.424       .  S
C2006      C2007   1.388       .  A
C2006      H2011   1.083       .  S
C2007      C2008   1.431       .  A
C2008      N2009   1.429       .  S
N2009      O2013   1.262       .  A
N2009      O2014   1.262       .  A
N2012      O2016   1.262       .  A
N2012      O2015   1.260       .  A
C2017      C2018   1.416       .  A
C2017      C2022   1.418       .  A
C2017      H2024   1.083       .  S
C2018      C2019   1.419       .  A
C2019      C2020   1.399       .  A
C2019      N2026   1.422       .  S
C2020      C2021   1.392       .  A
C2020      H2025   1.084       .  S
C2021      C2022   1.408       .  A
C2022      N2023   1.433       .  S
N2023      O2027   1.263       .  A
N2023      O2028   1.261       .  A
N2026      O2030   1.259       .  A
N2026      O2029   1.263       .  A
C2031      C2032   1.392       .  A
C2031      C2036   1.406       .  A
C2031      H2038   1.084       .  S
C2032      C2033   1.417       .  A
C2033      C2034   1.394       .  A
C2033      N2040   1.418       .  S
C2034      C2035   1.395       .  A
C2034      H2039   1.084       .  S
C2035      C2036   1.421       .  A
C2036      N2037   1.417       .  S
N2037      O2041   1.260       .  A
N2037      O2042   1.261       .  A
N2040      O2044   1.260       .  A
N2040      O2043   1.262       .  A
C2045      C2046   1.391       .  A
C2045      C2050   1.392       .  A
C2045      H2052   1.085       .  S
C2046      C2047   1.412       .  A
C2047      C2048   1.402       .  A
C2047      N2054   1.433       .  S
C2048      C2049   1.398       .  A
C2048      H2053   1.084       .  S
C2049      C2050   1.420       .  A
C2050      N2051   1.435       .  S
N2051      O2055   1.264       .  A
N2051      O2056   1.261       .  A
N2054      O2058   1.260       .  A
N2054      O2057   1.262       .  A
C2059      C2060   1.403       .  A
C2059      C2064   1.397       .  A
C2059      H2066   1.079       .  S
C2060      C2061   1.414       .  A
C2061      C2062   1.379       .  A
C2061      N2068   1.423       .  S
C2062      C2063   1.389       .  A
C2062      H2067   1.084       .  S
C2063      C2064   1.411       .  A
C2064      N2065   1.428       .  S
N2065      O2069   1.261       .  A
N2065      O2070   1.260       .  A
N2068      O2072   1.261       .  A
N2068      O2071   1.263       .  A
C2073      C2074   1.406       .  A
C2073      C2078   1.400       .  A
C2073      H2080   1.082       .  S
C2074      C2075   1.410       .  A
C2075      C2076   1.403       .  A
C2075      N2082   1.423       .  S
C2076      C2077   1.401       .  A
C2076      H2081   1.081       .  S
C2077      C2078   1.409       .  A
C2078      N2079   1.427       .  S
N2079      O2083   1.261       .  A
N2079      O2084   1.263       .  A
N2082      O2086   1.262       .  A
N2082      O2085   1.260       .  A
C2087      C2396   1.394       .  A
C2087      C2092   1.384       .  A
C2087      H2094   1.084       .  S
C2088      C2395   1.394       .  A
C2088      C2089   1.412       .  A
C2089      C2090   1.394       .  A
C2089      N2096   1.424       .  S
C2090      C2091   1.391       .  A
C2090      H2095   1.082       .  S
C2091      C2400   1.419       .  A
C2092      C2399   1.410       .  A
C2092      N2093   1.425       .  S
N2093      O2097   1.262       .  A
N2093      O2406   1.258       .  A
N2096      O2100   1.260       .  A
N2096      O2099   1.263       .  A
O2098      N2401   1.262       .  A
C2101      C2102   1.401       .  A
C2101      C2106   1.399       .  A
C2101      H2108   1.085       .  S
C2102      C2103   1.416       .  A
C2103      C2104   1.396       .  A
C2104      C2105   1.386       .  A
C2104      H2109   1.084       .  S
C2105      C2106   1.405       .  A
C2106      N2107   1.422       .  S
N2107      O2111   1.261       .  A
N2107      O2112   1.262       .  A
N2110      O2114   1.262       .  A
C2115      C2116   1.390       .  A
C2116      C2117   1.425       .  A
C2117      C2118   1.414       .  A
C2117      N2124   1.424       .  S
C2118      C2119   1.401       .  A
C2118      H2123   1.083       .  S
C2120      N2121   1.427       .  S
N2121      O2125   1.262       .  A
N2121      O2126   1.261       .  A
N2124      O2128   1.262       .  A
N2124      O2127   1.261       .  A
C2129      C2130   1.386       .  A
C2129      C2134   1.388       .  A
C2129      H2136   1.084       .  S
C2130      C2131   1.411       .  A
C2131      C2132   1.377       .  A
C2132      C2133   1.393       .  A
C2133      C2134   1.414       .  A
C2134      N2135   1.420       .  S
N2135      O2139   1.261       .  A
N2135      O2140   1.262       .  A
N2138      O2142   1.262       .  A
N2138      O2141   1.264       .  A
C2143      C2144   1.398       .  A
C2143      C2148   1.396       .  A
C2143      H2150   1.083       .  S
C2145      C2146   1.365       .  A
C2145      N2152   1.429       .  S
C2146      H2151   1.085       .  S
C2147      C2148   1.409       .  A
C2148      N2149   1.429       .  S
N2149      O2153   1.260       .  A
N2149      O2154   1.263       .  A
N2152      O2156   1.262       .  A
N2152      O2155   1.261   1_455  A
C2157      C2158   1.570       .  S
C2157      C2163   1.556       .  S
C2157      C2161   1.579       .  S
C2157      C2276   1.648       .  S
C2158      H2165   1.081       .  S
C2158      C2159   1.390       .  D
C2159      C2160   1.608       .  S
C2159      C2218   1.598       .  S
C2160      C2164   1.609       .  S
C2160      C2162   1.595       .  S
C2160      H2166   1.110       .  S
C2161      H2167   1.085       .  S
C2161      C2162   1.394       .  D
C2162      C2192   1.583       .  S
C2163      H2168   1.082       .  S
C2163      C2164   1.383       .  D
C2164      C2250   1.580       .  S
C2169      C2170   1.554       .  S
C2169      C2175   1.553       .  S
C2169      C2173   1.558       .  S
C2169      C2296   1.604       .  S
C2170      H2177   1.084       .  S
C2170      C2171   1.383       .  D
C2171      C2172   1.644       .  S
C2171      C2265   1.618       .  S
C2172      C2176   1.632       .  S
C2172      C2174   1.632       .  S
C2172      H2178   1.110       .  S
C2173      H2179   1.086       .  S
C2173      C2174   1.372       .  D
C2174      C2207   1.601       .  S
C2175      H2180   1.086       .  S
C2175      C2176   1.383       .  D
C2176      C2238   1.599       .  S
O2181      C2189   1.284       .  A
O2182      C2190   1.287       .  A
O2184      C2192   1.277       .  A
O2185      C2191   1.245       .  A
O2185     Co2202   1.971   1_565  S
O2186      C2192   1.299       .  A
O2187      C2190   1.284       .  A
O2187     Co2204   1.969       .  S
O2188      C2189   1.263   1_545  A
C2189      C2410   1.470       .  S
C2190      C2441   1.466       .  S
C2191      C2399   1.437       .  S
O2193      C2206   1.257       .  A
O2193     Co2201   1.948       .  S
O2194      C2207   1.313       .  A
O2195      C2208   1.303       .  A
O2195     Co2203   2.071       .  S
O2196     Co2204   1.964       .  S
O2198     Co2201   1.881   1_455  S
O2199      C2206   1.264       .  A
O2200      C2207   1.309       .  A
C2206      C2382   1.470       .  S
C2208      C2452   1.458       .  S
C2209      C2427   1.462       .  S
O2210      C2218   1.303       .  A
O2210     Co2230   2.136       .  S
O2211      C2219   1.256       .  A
O2211     Co2231   1.973       .  S
O2212      C2220   1.278       .  A
O2213      C2221   1.280       .  A
O2214      C2220   1.270       .  A
O2214     Co2231   2.001       .  S
O2215      C2221   1.293       .  A
O2215     Co2230   2.043       .  S
O2216      C2219   1.264       .  A
O2216     Co2233   1.994       .  S
O2217      C2218   1.293       .  A
O2217     Co2232   2.032       .  S
C2219      C2368   1.481       .  S
C2220      C2329   1.496       .  S
C2221      C2385   1.460       .  S
O2222      C2235   1.262       .  A
O2222     Co2230   1.973       .  S
O2223      C2236   1.277       .  A
O2223     Co2231   1.956       .  S
O2224      C2237   1.251       .  A
O2224     Co2232   1.962       .  S
O2225      C2238   1.306       .  A
O2225     Co2233   2.124       .  S
O2226      C2238   1.289       .  A
O2226     Co2231   2.067       .  S
O2227      C2237   1.251       .  A
O2227     Co2230   1.965       .  S
O2228      C2235   1.273       .  A
O2229     Co2232   2.015   1_554  S
Co2230     O2234   2.155   1_556  S
Co2232     O2234   1.997   1_556  S
C2235      C2343   1.477       .  S
C2236      C2396   1.457       .  S
C2237      C2354   1.442       .  S
O2239      C2247   1.271       .  A
O2240      C2248   1.254       .  A
O2241      C2249   1.237       .  A
O2241     Co2261   1.945       .  S
O2242      C2250   1.294       .  A
O2242     Co2262   2.112       .  S
O2243      C2249   1.272       .  A
O2243     Co2260   2.053       .  S
O2244      C2250   1.274       .  A
O2244     Co2259   2.041       .  S
O2245      C2248   1.272       .  A
O2245     Co2262   1.993       .  S
O2246      C2247   1.289       .  A
O2246     Co2261   2.012       .  S
C2247      C2357   1.445       .  S
C2248      C2438   1.464       .  S
C2249      C2312   1.465       .  S
O2251      C2264   1.268       .  A
O2251     Co2259   2.029       .  S
O2252      C2265   1.306       .  A
O2252     Co2260   2.098       .  S
O2253      C2266   1.269       .  A
O2253     Co2261   1.981       .  S
O2254      C2267   1.274       .  A
O2254     Co2262   1.863       .  S
O2255      C2267   1.289       .  A
O2256     Co2259   1.960   1_455  S
O2257      C2264   1.250       .  A
O2257     Co2262   1.974       .  S
O2258      C2265   1.317       .  A
O2258     Co2261   2.101       .  S
Co2259     O2263   2.075       .  S
Co2262     O2263   1.890       .  S
C2264      C2298   1.472       .  S
C2266      C2455   1.481       .  S
C2267      C2371   1.462       .  S
O2268      C2276   1.302       .  A
O2269      C2277   1.266       .  A
O2270      C2278   1.279       .  A
O2270     Co2290   2.019       .  S
O2271      C2279   1.276       .  A
O2271     Co2291   1.906       .  S
O2272      C2278   1.266       .  A
O2272     Co2289   1.982       .  S
O2273      C2279   1.295       .  A
O2273     Co2288   2.049       .  S
O2274      C2277   1.254       .  A
O2274     Co2291   1.988       .  S
O2275      C2276   1.302       .  A
O2275     Co2290   2.067       .  S
C2277      C2424   1.492       .  S
C2278      C2326   1.501       .  S
C2279      C2301   1.474       .  S
O2280      C2293   1.257       .  A
O2280     Co2288   1.945       .  S
O2281      C2294   1.259       .  A
O2281     Co2289   1.955       .  S
O2282      C2295   1.256       .  A
O2282     Co2290   2.017       .  S
O2283      C2296   1.295       .  A
O2283     Co2291   2.114       .  S
O2284      C2296   1.276       .  A
O2285      C2295   1.251       .  A
O2286      C2293   1.275       .  A
O2286     Co2291   2.004       .  S
O2287      C2294   1.288       .  A
O2287     Co2290   2.017       .  S
Co2289     O2292   2.045   1_565  S
Co2290     O2292   1.998   1_565  S
C2293      C2340   1.471       .  S
C2294      C2315   1.477       .  S
C2295      C2413   1.477       .  S
C2297      C2298   1.394       .  A
C2297      C2302   1.397       .  A
C2297      H2304   1.085       .  S
C2298      C2299   1.416       .  A
C2299      C2300   1.397       .  A
C2299      N2306   1.418       .  S
C2300      C2301   1.394       .  A
C2300      H2305   1.085       .  S
C2301      C2302   1.408       .  A
C2302      N2303   1.419       .  S
N2303      O2307   1.259       .  A
N2303      O2308   1.261       .  A
N2306      O2310   1.260       .  A
N2306      O2309   1.262       .  A
C2311      C2312   1.397       .  A
C2311      C2316   1.407       .  A
C2311      H2318   1.082       .  S
C2312      C2313   1.409       .  A
C2313      C2314   1.387       .  A
C2313      N2320   1.427       .  S
C2314      C2315   1.389       .  A
C2314      H2319   1.084       .  S
C2315      C2316   1.429       .  A
C2316      N2317   1.433       .  S
N2317      O2321   1.262       .  A
N2317      O2322   1.263       .  A
N2320      O2324   1.262       .  A
N2320      O2323   1.261       .  A
C2325      C2326   1.419       .  A
C2325      C2330   1.417       .  A
C2325      H2332   1.084       .  S
C2326      C2327   1.411       .  A
C2327      C2328   1.405       .  A
C2327      N2334   1.422       .  S
C2328      C2329   1.399       .  A
C2328      H2333   1.083       .  S
C2329      C2330   1.405       .  A
C2330      N2331   1.426       .  S
N2331      O2335   1.262       .  A
N2331      O2336   1.259       .  A
N2334      O2338   1.261       .  A
N2334      O2337   1.261       .  A
C2339      C2340   1.386       .  A
C2339      C2344   1.397       .  A
C2339      H2346   1.084       .  S
C2340      C2341   1.415       .  A
C2341      C2342   1.395       .  A
C2341      N2348   1.417       .  S
C2342      C2343   1.389       .  A
C2342      H2347   1.083       .  S
C2343      C2344   1.415       .  A
C2344      N2345   1.412       .  S
N2345      O2349   1.258       .  A
N2345      O2350   1.260       .  A
N2348      O2352   1.260       .  A
N2348      O2351   1.262       .  A
C2353      C2354   1.393       .  A
C2353      C2358   1.386       .  A
C2353      H2360   1.085       .  S
C2354      C2355   1.407       .  A
C2355      C2356   1.389       .  A
C2355      N2362   1.426       .  S
C2356      C2357   1.393       .  A
C2356      H2361   1.084       .  S
C2357      C2358   1.414       .  A
C2358      N2359   1.430       .  S
N2359      O2363   1.261       .  A
N2359      O2364   1.260       .  A
N2362      O2366   1.260       .  A
N2362      O2365   1.262       .  A
C2367      C2368   1.406       .  A
C2367      C2372   1.404       .  A
C2367      H2374   1.082       .  S
C2368      C2369   1.418       .  A
C2369      C2370   1.377       .  A
C2369      N2376   1.423       .  S
C2370      C2371   1.386       .  A
C2370      H2375   1.083       .  S
C2371      C2372   1.413       .  A
C2372      N2373   1.429       .  S
N2373      O2377   1.261       .  A
N2373      O2378   1.261       .  A
N2376      O2380   1.262       .  A
N2376      O2379   1.262       .  A
C2381      C2382   1.392       .  A
C2381      C2386   1.381       .  A
C2381      H2388   1.083       .  S
C2382      C2383   1.409       .  A
C2383      C2384   1.401       .  A
C2383      N2390   1.423       .  S
C2384      C2385   1.405       .  A
C2384      H2389   1.085       .  S
C2385      C2386   1.409       .  A
C2386      N2387   1.424       .  S
N2387      O2391   1.260       .  A
N2387      O2392   1.263       .  A
N2390      O2394   1.261       .  A
N2390      O2393   1.261       .  A
C2395      C2400   1.394       .  A
C2395      H2402   1.082       .  S
C2396      C2397   1.411       .  A
C2397      C2398   1.387       .  A
C2397      N2404   1.417       .  S
C2398      C2399   1.385       .  A
C2398      H2403   1.085       .  S
C2400      N2401   1.433   1_554  S
N2401      O2405   1.254       .  A
N2404      O2408   1.259       .  A
N2404      O2407   1.260       .  A
C2409      C2410   1.389       .  A
C2409      C2414   1.389       .  A
C2409      H2416   1.085       .  S
C2410      C2411   1.426       .  A
C2411      C2412   1.403       .  A
C2412      C2413   1.397       .  A
C2412      H2417   1.084       .  S
C2413      C2414   1.411       .  A
C2414      N2415   1.420       .  S
N2415      O2419   1.259       .  A
N2415      O2420   1.262   1_565  A
N2418      O2422   1.260       .  A
C2423      C2424   1.395       .  A
C2424      C2425   1.424       .  A
C2425      C2426   1.408       .  A
C2425      N2432   1.429       .  S
C2426      C2427   1.397       .  A
C2426      H2431   1.083       .  S
C2428      N2429   1.426       .  S
N2429      O2433   1.261   1_545  A
N2429      O2434   1.261       .  A
N2432      O2436   1.260       .  A
N2432      O2435   1.263       .  A
C2437      C2438   1.400       .  A
C2437      C2442   1.400       .  A
C2437      H2444   1.084       .  S
C2438      C2439   1.424       .  A
C2439      C2440   1.378       .  A
C2440      C2441   1.385       .  A
C2441      C2442   1.408       .  A
C2442      N2443   1.422       .  S
N2443      O2447   1.261       .  A
N2443      O2448   1.262       .  A
N2446      O2450   1.262       .  A
N2446      O2449   1.261       .  A
C2451      C2452   1.394       .  A
C2451      C2456   1.394       .  A
C2451      H2458   1.085       .  S
C2453      C2454   1.379       .  A
C2453      N2460   1.428       .  S
C2454      H2459   1.085       .  S
C2455      C2456   1.412       .  A
C2456      N2457   1.422       .  S
N2457      O2461   1.262       .  A
N2457      O2462   1.260       .  A
N2460      O2464   1.263       .  A
N2460      O2463   1.262       .  A
