geometry optimzed in LAMMPS
_audit_creation_date              2020-11-30 
_audit_creation_method            'lammps2cif' 
_symmetry_space_group_name_H-M    'P1' 
_symmetry_Int_Tables_number       1 
_symmetry_cell_setting            triclinic 
loop_ 
_symmetry_equiv_pos_as_xyz 
  x,y,z 
_cell_length_a                    41.940834649981326 
_cell_length_b                    41.899189731664976 
_cell_length_c                    31.79117246821148 
_cell_angle_alpha                 90.05442205914315 
_cell_angle_beta                  89.87722001422944 
_cell_angle_gamma                 120.09521265016846 
loop_ 
_atom_site_label 
_atom_site_type_symbol 
_atom_site_fract_x 
_atom_site_fract_y 
_atom_site_fract_z 
_atom_site_charge 
C1          C  0.49783621  0.72092146  0.10117938     0.03570
C2          C  0.49701922  0.72066596  0.14538857    -0.12580
C3          C  0.49637799  0.74913605  0.16881308     0.01070
C4          C  0.49670418  0.77813013  0.14561783    -0.11110
C5          C  0.49905211  0.77950755  0.10153488     0.03560
C6          C  0.49952201  0.75079484  0.07957584    -0.10530
H7          H  0.49661506  0.69756477  0.16057553     0.09150
H8          H  0.49458973  0.79994481  0.16078001     0.06680
H9          H  0.50163900  0.75195591  0.04557479     0.06530
C10         C  0.49787450  0.72027025  0.28364630     0.03570
C11         C  0.49389314  0.71899924  0.23971939    -0.12580
C12         C  0.49640642  0.74905233  0.21665222     0.01070
C13         C  0.49952289  0.77920228  0.24020639    -0.11110
C14         C  0.50140267  0.78000015  0.28439345     0.03560
C15         C  0.50197958  0.75106082  0.30562987    -0.10530
H16         H  0.48818683  0.69377231  0.22448551     0.09150
H17         H  0.49992322  0.80233707  0.22514044     0.06680
H18         H  0.50565286  0.75252091  0.33942625     0.06530
C19         C  0.25886315  0.78067403  0.28212325     0.03570
C20         C  0.25916134  0.77924152  0.23798837    -0.12580
C21         C  0.22760872  0.75431927  0.21509226     0.01070
C22         C  0.19622802  0.72900349  0.23820908    -0.11110
C23         C  0.19691806  0.72687258  0.28232116     0.03560
C24         C  0.22810239  0.75348259  0.30407185    -0.10530
H25         H  0.28458348  0.79767544  0.22205379     0.09150
H26         H  0.17078499  0.71047243  0.22241390     0.06680
H27         H  0.22864254  0.75286835  0.33805379     0.06530
C28         C  0.25424412  0.78530001  0.10028318     0.03570
C29         C  0.25398345  0.78539602  0.14448933    -0.12580
C30         C  0.22736994  0.75469541  0.16760954     0.01070
C31         C  0.20067584  0.72405782  0.14468036    -0.11110
C32         C  0.19878007  0.72482720  0.10060621     0.03560
C33         C  0.22558641  0.75570852  0.07873101    -0.10530
H34         H  0.27517971  0.80950453  0.16025529     0.09150
H35         H  0.18136975  0.69890060  0.16055081     0.06680
H36         H  0.22423159  0.75689599  0.04479921     0.06530
C37         C  0.19395753  0.47353362  0.10141186     0.03570
C38         C  0.22178462  0.47145322  0.07921217    -0.12580
C39         C  0.24671384  0.46387328  0.10020187     0.01070
C40         C  0.24246693  0.45716500  0.14384547    -0.11110
C41         C  0.21711734  0.46257040  0.16767928     0.03560
C42         C  0.19289184  0.47066727  0.14547025    -0.10530
H43         H  0.22407017  0.47608750  0.04565393     0.09150
H44         H  0.25978903  0.44838505  0.15889087     0.06680
H45         H  0.17353055  0.47603559  0.16191471     0.06530
C46         C  0.19315906  0.47152484  0.28187895     0.03570
C47         C  0.18908884  0.46214678  0.23891097    -0.12580
C48         C  0.21820238  0.46340387  0.21524650     0.01070
C49         C  0.24951416  0.46838074  0.23748515    -0.11110
C50         C  0.25310548  0.47493428  0.28112703     0.03560
C51         C  0.22587324  0.47893557  0.30222034    -0.10530
H52         H  0.16307392  0.45426862  0.22404218     0.09150
H53         H  0.27164618  0.46764825  0.22121637     0.06680
H54         H  0.23060141  0.48850195  0.33441691     0.06530
C55         C  0.77896498  0.26099289  0.28318656     0.03570
C56         C  0.78056148  0.25943500  0.23915978    -0.12580
C57         C  0.75095473  0.23181018  0.21563752     0.01070
C58         C  0.72022472  0.20481640  0.23843648    -0.11110
C59         C  0.71945182  0.20482468  0.28256153     0.03560
C60         C  0.74887391  0.23294681  0.30481606    -0.10530
H61         H  0.80517405  0.28059405  0.22412682     0.09150
H62         H  0.69603678  0.18375591  0.22267914     0.06680
H63         H  0.74739859  0.23401881  0.33879357     0.06530
C64         C  0.77389380  0.26646038  0.10147992     0.03570
C65         C  0.77603178  0.26440093  0.14534978    -0.12580
C66         C  0.75075634  0.23264486  0.16802267     0.01070
C67         C  0.72402967  0.20234197  0.14455044    -0.11110
C68         C  0.71982930  0.20487901  0.10097912     0.03560
C69         C  0.74510864  0.23712441  0.07976225    -0.10530
H70         H  0.79770620  0.28811238  0.16103234     0.09150
H71         H  0.70587916  0.17638663  0.15964310     0.06680
H72         H  0.74198466  0.24008437  0.04644379     0.06530
C73         C  0.71290511  0.51172767  0.10106315     0.03570
C74         C  0.74290043  0.51413901  0.07899054    -0.12580
C75         C  0.77208634  0.51436761  0.10045098     0.01070
C76         C  0.77221666  0.51471366  0.14466385    -0.11110
C77         C  0.74284533  0.51325997  0.16823698     0.03560
C78         C  0.71287946  0.51092708  0.14524075    -0.10530
H79         H  0.74350882  0.51584341  0.04497889     0.09150
H80         H  0.79545134  0.51546185  0.15979542     0.06680
H81         H  0.68850944  0.50746852  0.16071270     0.06530
C82         C  0.71497326  0.51438569  0.28380023     0.03570
C83         C  0.71552838  0.51552094  0.23962664    -0.12580
C84         C  0.74316096  0.51347658  0.21603317     0.01070
C85         C  0.77091628  0.51135178  0.23908122    -0.11110
C86         C  0.77138225  0.51185587  0.28313391     0.03560
C87         C  0.74330646  0.51306963  0.30540070    -0.10530
H88         H  0.69347676  0.51724846  0.22463151     0.09150
H89         H  0.79265452  0.50905805  0.22396284     0.06680
H90         H  0.74324728  0.51246674  0.33949383     0.06530
C91         C  0.45467897  0.19878154  0.28396491     0.03570
C92         C  0.44743059  0.19533743  0.24052882    -0.12580
C93         C  0.44679067  0.22369929  0.21702906     0.01070
C94         C  0.45054810  0.25445828  0.23973974    -0.11110
C95         C  0.45630634  0.25761624  0.28334901     0.03560
C96         C  0.45871910  0.22993326  0.30518385    -0.10530
H97         H  0.44335345  0.17047293  0.22573540     0.09150
H98         H  0.45022348  0.27711775  0.22422401     0.06680
H99         H  0.46533277  0.23356092  0.33839282     0.06530
C100        C  0.46454918  0.20361353  0.10444095     0.03570
C101        C  0.45272869  0.19773779  0.14657182    -0.12580
C102        C  0.44790317  0.22398415  0.16931525     0.01070
C103        C  0.44856124  0.25299497  0.14604222    -0.11110
C104        C  0.46119555  0.26022268  0.10421435     0.03560
C105        C  0.47012944  0.23581035  0.08420437    -0.10530
H106        H  0.44740685  0.17242038  0.16105886     0.09150
H107        H  0.43929506  0.27031778  0.16002614     0.06680
H108        H  0.48162131  0.24194860  0.05278452     0.06530
O109        O  0.51418668  0.58592817  0.02326464    -0.74860
O110        O  0.46308992  0.57751558  0.48858523    -0.53760
C111        C  0.48978071  0.59498458  0.01466326     0.78870
O112        O  0.57609721  0.52367605  0.35950307    -0.59460
O113        O  0.56967559  0.47419417  0.39628601    -0.52490
C114        C  0.58628184  0.50026319  0.36924727     0.70890
O115        O  0.51370097  0.58553889  0.36109977    -0.74010
O116        O  0.46385743  0.57809821  0.39823102    -0.54580
C117        C  0.48991672  0.59512055  0.37123821     0.76890
O118        O  0.57561241  0.52359461  0.02454463    -0.59160
O119        O  0.56935233  0.47406972  0.48783291    -0.52280
C120        C  0.58566030  0.50006506  0.01510966     0.73480
Zr121      Zr  0.52823573  0.53787452  0.50442037     2.54710
O122        O  0.58645232  0.59592956  0.50340251    -0.79720
O123        O  0.52628268  0.53590669  0.08098636    -0.93140
Zr124      Zr  0.52800537  0.53758595  0.37939636     2.64680
O125        O  0.58559007  0.59634384  0.37849906    -0.98100
O126        O  0.52484651  0.53431520  0.30290804    -0.80160
O127        O  0.51068890  0.55585779  0.44206671    -0.83510
O128        O  0.54686118  0.52100661  0.44180602    -2.18220
O129        O  0.45217480  0.39797692  0.02788985    -0.66900
O130        O  0.49890841  0.40232856  0.48666610    -0.51470
C131        C  0.47490699  0.38748698  0.01623426     0.71860
O132        O  0.38667107  0.45795266  0.35894613    -0.59810
O133        O  0.39290626  0.50701736  0.39716781    -0.51790
C134        C  0.37711029  0.48176020  0.36914086     0.73670
O135        O  0.44773377  0.39474573  0.36035550    -0.71210
O136        O  0.49925694  0.40339172  0.39489887    -0.49880
C137        C  0.47242496  0.38610119  0.36900759     0.75050
O138        O  0.38595265  0.45561284  0.02524716    -0.66540
O139        O  0.39104962  0.50420127  0.48710880    -0.53730
C140        C  0.37525498  0.47836728  0.01460430     0.73430
Zr141      Zr  0.43448623  0.44267655  0.50533412     2.77540
O142        O  0.37739622  0.38346730  0.50475189    -0.97290
O143        O  0.43617154  0.44602409  0.08180644    -0.78110
Zr144      Zr  0.43363037  0.44270712  0.37987447     2.70070
O145        O  0.37524284  0.38483312  0.37969803    -0.79350
O146        O  0.43728245  0.44608069  0.30341987    -0.98440
Zr147      Zr  0.44516704  0.52483023  0.44293507     2.21500
Zr148      Zr  0.51683042  0.45535209  0.44169632     2.11130
O149        O  0.45119579  0.42445050  0.44230740    -2.47130
O150        O  0.41525071  0.45930799  0.44296099    -0.79150
O151        O  0.49970818  0.47262856  0.00553331    -0.71340
O152        O  0.46274977  0.50791279  0.37907407    -2.32300
O153        O  0.46303343  0.50789596  0.00637856    -2.28510
O154        O  0.49896444  0.47229265  0.37826800    -0.73100
H155        H  0.57333211  0.53190950  0.44176857     0.78890
H156        H  0.45467821  0.51592768  0.35491688     0.79980
H157        H  0.44077731  0.39801041  0.44242523     0.82210
H158        H  0.45496186  0.51575384  0.03074261     0.79810
H159        H  0.50088153  0.53219911  0.29584590     0.42850
H160        H  0.46193740  0.44968898  0.29666847     0.41820
H161        H  0.36599687  0.38223358  0.40889778     0.41500
H162        H  0.38313630  0.36687806  0.48833128     0.39430
H163        H  0.46266340  0.45770499  0.08889817     0.42560
H164        H  0.50369808  0.53651624  0.08862835     0.37350
H165        H  0.58631846  0.60745065  0.47627460     0.43460
H166        H  0.60245260  0.59255401  0.39685030     0.39880
H167        H  0.37449920  0.37439672  0.03404689     0.44800
H168        H  0.54677495  0.56029689  0.08975973     0.43520
H169        H  0.59549360  0.59820007  0.34974073     0.43660
H170        H  0.41979904  0.42067027  0.29389288     0.44010
O171        O  0.04657643  0.59238960  0.35986954    -0.74860
O172        O  0.08941552  0.58455756  0.39568670    -0.53760
C173        C  0.07991730  0.60158961  0.36936660     0.78870
O174        O  0.92257962  0.52812705  0.02406373    -0.59460
O175        O  0.87958105  0.47945458  0.48608270    -0.52490
C176        C  0.88904717  0.50487806  0.01403853     0.70890
O177        O  0.04671743  0.59064632  0.02333249    -0.74010
O178        O  0.08943285  0.58363950  0.48640885    -0.54580
C179        C  0.08018978  0.60017251  0.01377945     0.76890
O180        O  0.92227959  0.53023642  0.35981796    -0.59160
O181        O  0.87953804  0.47781414  0.39331803    -0.52280
C182        C  0.88888247  0.50495341  0.36793984     0.73480
Zr183      Zr  0.98446718  0.54385260  0.37850651     2.54710
O184        O  0.98467787  0.60204310  0.37841135    -0.79720
O185        O  0.98398450  0.54056604  0.30201217    -0.93140
Zr186      Zr  0.98455631  0.54324124  0.50346112     2.64680
O187        O  0.98537849  0.60177130  0.50306498    -0.98100
O188        O  0.98410240  0.54086362  0.08001373    -0.80160
O189        O  0.02020647  0.56185402  0.44095632    -0.83510
O190        O  0.94894293  0.52655110  0.44104623    -2.18220
O191        O  0.92248718  0.40034181  0.35917123    -0.66900
O192        O  0.87933069  0.40778579  0.39498284    -0.51470
C193        C  0.88907165  0.39082994  0.36876631     0.71860
O194        O  0.04577402  0.46248095  0.02227623    -0.59810
O195        O  0.08922799  0.51296077  0.48695119    -0.51790
C196        C  0.07947389  0.48658712  0.01371385     0.73670
O197        O  0.92134176  0.40122961  0.02308807    -0.71210
O198        O  0.87875809  0.40920721  0.48696679    -0.49880
C199        C  0.88805108  0.39247813  0.01382874     0.75050
O200        O  0.04628759  0.46381542  0.35700245    -0.66540
O201        O  0.08930406  0.51181903  0.39627297    -0.53730
C202        C  0.07965869  0.48666033  0.36802338     0.73430
Zr203      Zr  0.98437289  0.44913707  0.37770517     2.77540
O204        O  0.98620190  0.39195856  0.37665727    -0.97290
O205        O  0.98334918  0.45242934  0.30130993    -0.78110
Zr206      Zr  0.98380405  0.44840371  0.50296776     2.70070
O207        O  0.98275207  0.38980953  0.50389692    -0.79350
O208        O  0.98463186  0.45248661  0.07939495    -0.98440
Zr209      Zr  0.05504049  0.53116950  0.44076026     2.21500
Zr210      Zr  0.91375250  0.46085952  0.44039812     2.11130
O211        O  0.94870538  0.43028471  0.44027294    -2.47130
O212        O  0.01963847  0.46560882  0.44042299    -0.79150
O213        O  0.94849808  0.47850672  0.37682301    -0.71340
O214        O  0.02003322  0.51360338  0.00425628    -2.32300
O215        O  0.02034519  0.51443098  0.37714716    -2.28510
O216        O  0.94818981  0.47792874  0.00409341    -0.73100
H217        H  0.93317690  0.53720621  0.44125295     0.78890
H218        H  0.03592846  0.52140197  0.02858748     0.79980
H219        H  0.93286558  0.40381200  0.44036165     0.82210
H220        H  0.03642834  0.52256582  0.35290088     0.79810
H221        H  0.00400027  0.53570190  0.08738312     0.42850
H222        H  0.96344004  0.45574713  0.08650152     0.41820
H223        H  0.99150644  0.38791584  0.47556185     0.41500
H224        H  0.96577085  0.37496268  0.39532975     0.39430
H225        H  0.96488193  0.45992987  0.29526975     0.42560
H226        H  0.00694807  0.54064563  0.29451528     0.37350
H227        H  0.99430680  0.61279191  0.40647577     0.43460
H228        H  0.96389600  0.59722807  0.48577033     0.39880
H229        H  0.97795466  0.38190153  0.34802036     0.44800
H230        H  0.98829220  0.56495327  0.29265735     0.43520
H231        H  0.97849768  0.60447713  0.03211559     0.43660
H232        H  0.97717947  0.42725126  0.08913702     0.44010
O233        O  0.52107572  0.93302467  0.36179005    -0.74860
O234        O  0.47068780  0.89055040  0.39813075    -0.53760
C235        C  0.49694463  0.89958713  0.37137077     0.78870
O236        O  0.58130710  0.05775593  0.02608879    -0.59460
O237        O  0.57691147  0.10070477  0.48597223    -0.52490
C238        C  0.59201717  0.09109953  0.01470812     0.70890
O239        O  0.52054788  0.93296972  0.02399022    -0.74010
O240        O  0.46980924  0.89077027  0.48819550    -0.54580
C241        C  0.49607963  0.89951735  0.01453280     0.76890
O242        O  0.58413825  0.05729518  0.36096524    -0.59160
O243        O  0.57467962  0.10052419  0.39351152    -0.52280
C244        C  0.59244264  0.09078092  0.36859218     0.73480
Zr245      Zr  0.53523398  0.99531322  0.37994740     2.54710
O246        O  0.59301539  0.99482953  0.37946179    -0.79720
O247        O  0.53261273  0.99561025  0.30344399    -0.93140
Zr248      Zr  0.53493360  0.99554834  0.50504183     2.64680
O249        O  0.59312789  0.99580885  0.50411503    -0.98100
O250        O  0.53252690  0.99514849  0.08160379    -0.80160
O251        O  0.51772418  0.95985485  0.44266959    -0.83510
O252        O  0.55359574  0.03105256  0.44224872    -2.18220
O253        O  0.45508752  0.05672536  0.35791473    -0.66900
O254        O  0.50397262  0.10027987  0.39568289    -0.51470
C255        C  0.47820977  0.09024184  0.36816955     0.71860
O256        O  0.39158243  0.93545288  0.02297342    -0.59810
O257        O  0.39873870  0.89191686  0.48819147    -0.51790
C258        C  0.38161204  0.90175536  0.01414010     0.73670
O259        O  0.45879272  0.05928350  0.02712285    -0.71210
O260        O  0.50620470  0.10179820  0.48665895    -0.49880
C261        C  0.48191205  0.09257377  0.01588079     0.75050
O262        O  0.39260673  0.93234207  0.36062156    -0.66540
O263        O  0.39971178  0.89001949  0.39808406    -0.53730
C264        C  0.38299409  0.89888355  0.37074596     0.73430
Zr265      Zr  0.44048813  0.99502653  0.37936533     2.77540
O266        O  0.38214934  0.99447172  0.37937042    -0.97290
O267        O  0.44290737  0.99369033  0.30290686    -0.78110
Zr268      Zr  0.44128469  0.99684673  0.50480632     2.70070
O269        O  0.38525097  0.00062891  0.50552335    -0.79350
O270        O  0.44313287  0.99384557  0.08117270    -0.98440
Zr271      Zr  0.45222211  0.92536701  0.44295847     2.21500
Zr272      Zr  0.52344257  0.06652918  0.44108773     2.11130
O273        O  0.45783788  0.03135672  0.44155165    -2.47130
O274        O  0.42208649  0.96055605  0.44265363    -0.79150
O275        O  0.50587441  0.03115238  0.37797653    -0.71340
O276        O  0.46973334  0.96022969  0.00643101    -2.32300
O277        O  0.46993032  0.95940120  0.37890125    -2.28510
O278        O  0.50644374  0.03232196  0.00513302    -0.73100
H279        H  0.58005508  0.04681445  0.44225549     0.78890
H280        H  0.46142311  0.94425691  0.03075196     0.79980
H281        H  0.44727735  0.04721721  0.44155830     0.82210
H282        H  0.46189104  0.94313644  0.35483807     0.79810
H283        H  0.50811736  0.97387424  0.08885980     0.42850
H284        H  0.46800540  0.01404645  0.08892267     0.41820
H285        H  0.37337948  0.99002115  0.47817897     0.41500
H286        H  0.38666126  0.01597493  0.39672224     0.39430
H287        H  0.46910667  0.01077425  0.29586214     0.42560
H288        H  0.50981053  0.97248053  0.29604454     0.37350
H289        H  0.59432118  0.98561708  0.40770615     0.43460
H290        H  0.60993125  0.01758083  0.48697617     0.39880
H291        H  0.37965486  0.00141607  0.35031164     0.44800
H292        H  0.55283452  0.99151830  0.29416297     0.43520
H293        H  0.60264187  0.00252801  0.03317604     0.43660
H294        H  0.42619809  0.00227959  0.09114468     0.44010
C295        C  0.45905316  0.29210152  0.03802015    -0.20870
C296        C  0.46563309  0.29354230  0.08163990    -0.08910
C297        C  0.47669306  0.32713553  0.10300153     0.29950
C298        C  0.47932066  0.35748410  0.08154725    -0.20870
C299        C  0.47278511  0.35567802  0.03824015    -0.08930
C300        C  0.46328050  0.32303908  0.01640388     0.29950
F301        F  0.45697046  0.32075519  0.47437045    -0.19450
H302        H  0.45012744  0.26685591  0.02051358     0.18320
H303        H  0.48724010  0.38277078  0.09861921     0.18320
F304        F  0.48617389  0.33131657  0.14426946    -0.19440
C305        C  0.46308308  0.16992593  0.03826401    -0.20870
C306        C  0.47104437  0.17615087  0.08154739    -0.08910
C307        C  0.48454400  0.15544797  0.10231574     0.29950
C308        C  0.48794902  0.12820835  0.08073571    -0.20870
C309        C  0.47974093  0.12223109  0.03784193    -0.08930
C310        C  0.46802298  0.14373672  0.01648936     0.29950
F311        F  0.46005910  0.13843494  0.47486839    -0.19450
H312        H  0.45226652  0.18477901  0.02122039     0.18320
H313        H  0.49753592  0.11206325  0.09739845     0.18320
F314        F  0.49542201  0.16192880  0.14311119    -0.19440
C315        C  0.43993642  0.28691516  0.34159252    -0.20870
C316        C  0.46135797  0.29082173  0.30586529    -0.08910
C317        C  0.48709003  0.32649874  0.29162040     0.29950
C318        C  0.49109113  0.35757042  0.31280238    -0.20870
C319        C  0.46920643  0.35347442  0.34797571    -0.08930
C320        C  0.44352515  0.31801762  0.36226474     0.29950
F321        F  0.42181622  0.31356309  0.39603040    -0.19450
H322        H  0.41987164  0.25972400  0.35291195     0.18320
H323        H  0.51095013  0.38484743  0.30149629     0.18320
F324        F  0.50867984  0.33129181  0.25761289    -0.19440
C325        C  0.48165440  0.15720762  0.28665960    -0.20870
C326        C  0.46088572  0.17108405  0.30621566    -0.08910
C327        C  0.44668480  0.15847682  0.34686692     0.29950
C328        C  0.45319146  0.13268212  0.36715596    -0.20870
C329        C  0.47382948  0.11904933  0.34743620    -0.08930
C330        C  0.48781359  0.13118338  0.30691732     0.29950
F331        F  0.50719733  0.11768823  0.28691582    -0.19450
H332        H  0.49336453  0.16667954  0.25566345     0.18320
H333        H  0.44128602  0.12256537  0.39789955     0.18320
F334        F  0.42542888  0.16998370  0.36642548    -0.19440
C335        C  0.63988020  0.53341359  0.31997912    -0.20870
C336        C  0.61971368  0.50404637  0.34812463    -0.08910
C337        C  0.63226018  0.47900007  0.35594015     0.29950
C338        C  0.66375817  0.48320570  0.33569765    -0.20870
C339        C  0.68331250  0.51213568  0.30714868    -0.08930
C340        C  0.67127778  0.53742893  0.29966610     0.29950
F341        F  0.69013808  0.56628530  0.27306090    -0.19450
H342        H  0.63139595  0.55343778  0.31352525     0.18320
H343        H  0.67243797  0.46323388  0.34158605     0.18320
F344        F  0.61404426  0.45011534  0.38267813    -0.19440
C345        C  0.82891801  0.54139296  0.32582599    -0.20870
C346        C  0.80098705  0.50995250  0.30578910    -0.08910
C347        C  0.80203101  0.47700780  0.30635902     0.29950
C348        C  0.83054984  0.47547490  0.32713148    -0.20870
C349        C  0.85892103  0.50705177  0.34653020    -0.08930
C350        C  0.85799038  0.54012766  0.34574944     0.29950
F351        F  0.88464896  0.57083998  0.36510651    -0.19450
H352        H  0.82838911  0.56697811  0.32551768     0.18320
H353        H  0.83086359  0.44977966  0.32747950     0.18320
F354        F  0.77537356  0.44636815  0.28691292    -0.19440
C355        C  0.63417468  0.48233896  0.02362553    -0.20870
C356        C  0.61851759  0.50349400  0.03697848    -0.08910
C357        C  0.63483096  0.52796389  0.07112022     0.29950
C358        C  0.66567127  0.53075299  0.09127194    -0.20870
C359        C  0.68100619  0.50935944  0.07811441    -0.08930
C360        C  0.66503094  0.48516724  0.04388428     0.29950
F361        F  0.67844551  0.46331746  0.03080810    -0.19450
H362        H  0.62247194  0.46336607  0.49748009     0.18320
H363        H  0.67766725  0.54979104  0.11733002     0.18320
F364        F  0.62092350  0.54900323  0.08561232    -0.19440
C365        C  0.82266824  0.48680888  0.02220414    -0.20870
C366        C  0.85936058  0.50794412  0.03590822    -0.08910
C367        C  0.86711887  0.53201031  0.07035290     0.29950
C368        C  0.83883542  0.53465313  0.09026250    -0.20870
C369        C  0.80213663  0.51313193  0.07693250    -0.08930
C370        C  0.79434036  0.48917882  0.04247134     0.29950
F371        F  0.75919644  0.46694071  0.02923057    -0.19450
H372        H  0.81567937  0.46805666  0.49587138     0.18320
H373        H  0.84572551  0.55357865  0.11640401     0.18320
F374        F  0.90188437  0.55270958  0.08546436    -0.19440
C375        C  0.65280966  0.15669796  0.09871795    -0.20870
C376        C  0.68740726  0.17488396  0.07850715    -0.08910
C377        C  0.68999705  0.16488112  0.03673299     0.29950
C378        C  0.65855443  0.13818311  0.01572760    -0.20870
C379        C  0.62437759  0.12035238  0.03624219    -0.08930
C380        C  0.62172357  0.12933543  0.07803174     0.29950
F381        F  0.58891792  0.11197209  0.09860227    -0.19450
H382        H  0.64958326  0.16400155  0.13048579     0.18320
H383        H  0.66099973  0.13079237  0.48369150     0.18320
F384        F  0.72293013  0.17996854  0.01651513    -0.19440
C385        C  0.84142542  0.36571813  0.07078090    -0.20870
C386        C  0.85827573  0.36055810  0.03541155    -0.08910
C387        C  0.84657962  0.32478523  0.02084821     0.29950
C388        C  0.81864425  0.29435976  0.04205788    -0.20870
C389        C  0.80209681  0.29923255  0.07815706    -0.08930
C390        C  0.81352338  0.33532723  0.09213051     0.29950
F391        F  0.79736945  0.34126636  0.12595044    -0.19450
H392        H  0.85006061  0.39331322  0.08195649     0.18320
H393        H  0.81042026  0.26689531  0.03077491     0.18320
F394        F  0.86226895  0.31937074  0.48620465    -0.19440
C395        C  0.69097061  0.15342769  0.33468652    -0.20870
C396        C  0.68690799  0.17614034  0.30532801    -0.08910
C397        C  0.65161966  0.17093667  0.29745456     0.29950
C398        C  0.62093077  0.14340297  0.31872608    -0.20870
C399        C  0.62495145  0.12021255  0.34727283    -0.08930
C400        C  0.66013073  0.12532416  0.35522606     0.29950
F401        F  0.66462821  0.10351005  0.38331285    -0.19450
H402        H  0.71797354  0.15711726  0.34111877     0.18320
H403        H  0.59391558  0.13975855  0.31245694     0.18320
F404        F  0.64696139  0.19278690  0.26959218    -0.19440
C405        C  0.81467430  0.32916640  0.29284883    -0.20870
C406        C  0.80711621  0.29398855  0.30593357    -0.08910
C407        C  0.82602137  0.29093259  0.34077539     0.29950
C408        C  0.85256258  0.32270862  0.36147751    -0.20870
C409        C  0.85995761  0.35769866  0.34821537    -0.08930
C410        C  0.84074020  0.36080659  0.31396087     0.29950
F411        F  0.84776107  0.39445430  0.30046344    -0.19450
H412        H  0.80011773  0.33206967  0.26635407     0.18320
H413        H  0.86748644  0.32008516  0.38777229     0.18320
F414        F  0.81954431  0.25740414  0.35400890    -0.19440
C415        C  0.32032718  0.49334686  0.28515808    -0.20870
C416        C  0.28538728  0.47778984  0.30451949    -0.08910
C417        C  0.28139573  0.46361867  0.34577666     0.29950
C418        C  0.31153139  0.46543400  0.36677985    -0.20870
C419        C  0.34579368  0.48020802  0.34681435    -0.08930
C420        C  0.35005969  0.49399568  0.30581075     0.29950
F421        F  0.38313088  0.50848346  0.28596197    -0.19450
H422        H  0.32489132  0.50524395  0.25400257     0.18320
H423        H  0.30793522  0.45453504  0.39841530     0.18320
F424        F  0.24816865  0.44667332  0.36543876    -0.19440
C425        C  0.12961533  0.47125019  0.36854432    -0.20630
C426        C  0.10894955  0.48354380  0.34650016    -0.08910
C427        C  0.11553683  0.49153270  0.30354131     0.29950
C428        C  0.14320090  0.48812997  0.28309321    -0.20870
C429        C  0.16390103  0.47522564  0.30467606    -0.08930
C430        C  0.15635135  0.46638211  0.34782885     0.29950
F431        F  0.17362533  0.45173155  0.36985269    -0.19450
H432        H  0.12423313  0.46434810  0.40162144     0.18320
H433        H  0.14853117  0.49598359  0.25029651     0.18320
F434        F  0.09557041  0.50320235  0.28153688    -0.19440
C435        C  0.30892644  0.45994444  0.01457485    -0.20870
C436        C  0.34250119  0.47452131  0.03600151    -0.08910
C437        C  0.34435590  0.48430905  0.07838942     0.29950
C438        C  0.31320176  0.48071164  0.09875448    -0.20870
C439        C  0.27910333  0.46597205  0.07772472    -0.08930
C440        C  0.27727070  0.45505524  0.03528679     0.29950
F441        F  0.24490455  0.43866797  0.51399807    -0.19450
H442        H  0.30707711  0.45157592  0.48200084     0.18320
H443        H  0.31611281  0.49016453  0.13096604     0.18320
F444        F  0.37654572  0.49804182  0.09985473    -0.19440
C445        C  0.12822659  0.45615622  0.09103407    -0.20870
C446        C  0.16528333  0.47796784  0.07895264    -0.08910
C447        C  0.17403289  0.50306712  0.04551828     0.29950
C448        C  0.14612521  0.50575733  0.02453786    -0.20870
C449        C  0.10893255  0.48366731  0.03644266    -0.08930
C450        C  0.10039373  0.45892966  0.07034514     0.29950
F451        F  0.06519557  0.43740311  0.08397389    -0.19450
H452        H  0.12064489  0.43643728  0.11645791     0.18320
H453        H  0.15375350  0.52524103  0.49887207     0.18320
F454        F  0.20956152  0.52570335  0.03372111    -0.19440
C455        C  0.14628986  0.64966236  0.01952103    -0.20870
C456        C  0.11025396  0.63237651  0.03584929    -0.08910
C457        C  0.10365494  0.64597464  0.07345627     0.29950
C458        C  0.13247455  0.67611149  0.09390121    -0.20870
C459        C  0.16852866  0.69322924  0.07772306    -0.08930
C460        C  0.17515343  0.67964979  0.04015582     0.29950
F461        F  0.20966345  0.69447652  0.52394652    -0.19450
H462        H  0.15229410  0.63988066  0.49069105     0.18320
H463        H  0.12650001  0.68616578  0.12253944     0.18320
F464        F  0.06958625  0.62981655  0.09113985    -0.19440
C465        C  0.29959086  0.85231692  0.08836456    -0.20870
C466        C  0.28546648  0.81534251  0.07666730    -0.08910
C467        C  0.30272023  0.80709820  0.04376692     0.29950
C468        C  0.33357402  0.83526568  0.02344402    -0.20870
C469        C  0.34814142  0.87230902  0.03545428    -0.08930
C470        C  0.33054059  0.88054334  0.06816777     0.29950
F471        F  0.34342799  0.91572530  0.08140167    -0.19450
H472        H  0.28671886  0.85940916  0.11342697     0.18320
H473        H  0.34631399  0.82787325  0.49852089     0.18320
F474        F  0.29075849  0.77164513  0.03232381    -0.19440
C475        C  0.14962802  0.65976162  0.28712365    -0.20870
C476        C  0.16591053  0.69532230  0.30492855    -0.08910
C477        C  0.15300122  0.69961670  0.34440225     0.29950
C478        C  0.12514548  0.66889110  0.36556749    -0.20870
C479        C  0.10941827  0.63368921  0.34753868    -0.08930
C480        C  0.12146757  0.62932933  0.30799829     0.29950
F481        F  0.10614753  0.59551646  0.28975366    -0.19450
H482        H  0.15913064  0.65531028  0.25717531     0.18320
H483        H  0.11558031  0.67258494  0.39588136     0.18320
F484        F  0.16648021  0.73344000  0.36211321    -0.19440
C485        C  0.33793894  0.87567593  0.31134193    -0.20870
C486        C  0.35077526  0.86850772  0.34891226    -0.08910
C487        C  0.33276593  0.83214700  0.36475532     0.29950
C488        C  0.30328446  0.80374475  0.34283662    -0.20870
C489        C  0.29070991  0.81088141  0.30500384    -0.08930
C490        C  0.30823942  0.84740699  0.28972273     0.29950
F491        F  0.29614612  0.85618035  0.25440476    -0.19450
H492        H  0.35097250  0.90331301  0.29843585     0.18320
H493        H  0.29049276  0.77602656  0.35543034     0.18320
F494        F  0.34315831  0.82394427  0.40173347    -0.19440
C495        C  0.51296809  0.64075654  0.31227378    -0.20870
C496        C  0.49267383  0.62784539  0.34982022    -0.08910
C497        C  0.47518855  0.64644239  0.36617134     0.29950
C498        C  0.47715448  0.67644445  0.34464465    -0.20870
C499        C  0.49684855  0.68887853  0.30667825    -0.08930
C500        C  0.51522157  0.67095912  0.29098863     0.29950
F501        F  0.53598593  0.68297809  0.25547943    -0.19450
H502        H  0.52701822  0.62730227  0.29905567     0.18320
H503        H  0.46275073  0.68966809  0.35748909     0.18320
F504        F  0.45651013  0.63603669  0.40318366    -0.19440
C505        C  0.47889780  0.83302563  0.36495612    -0.20870
C506        C  0.49947743  0.86940541  0.34991903    -0.08910
C507        C  0.52182963  0.87624880  0.31400252     0.29950
C508        C  0.52309801  0.84730872  0.29371197    -0.20870
C509        C  0.50193032  0.81086120  0.30825039    -0.08930
C510        C  0.47994482  0.80405955  0.34441829     0.29950
F511        F  0.45819470  0.76923300  0.35905837    -0.19450
H512        H  0.46150258  0.82677669  0.39248992     0.18320
H513        H  0.54056468  0.85346388  0.26626231     0.18320
F514        F  0.54181986  0.91068754  0.29760677    -0.19440
C515        C  0.51843304  0.67469724  0.09117488    -0.20870
C516        C  0.49676723  0.68964037  0.07777361    -0.08910
C517        C  0.47323415  0.67358080  0.04304745     0.29950
C518        C  0.47130213  0.64307720  0.02264308    -0.20870
C519        C  0.49265471  0.62778734  0.03634478    -0.08930
C520        C  0.51642535  0.64412853  0.07095326     0.29950
F521        F  0.53732001  0.63031658  0.08600991    -0.19450
H522        H  0.53701593  0.68670063  0.11756661     0.18320
H523        H  0.45277942  0.63127707  0.49617522     0.18320
F524        F  0.45106072  0.68646355  0.02966930    -0.19440
C525        C  0.52231623  0.87615108  0.06936576    -0.20870
C526        C  0.49795121  0.86883926  0.03561398    -0.08910
C527        C  0.47513898  0.83186065  0.02276587     0.29950
C528        C  0.47611427  0.80321629  0.04398326    -0.20870
C529        C  0.49974502  0.81053689  0.07829821    -0.08930
C530        C  0.52328200  0.84738362  0.09049522     0.29950
F531        F  0.54757888  0.85564403  0.12249357    -0.19450
H532        H  0.54048385  0.90418269  0.07979428     0.18320
H533        H  0.45775582  0.77506807  0.03402177     0.18320
F534        F  0.45169739  0.82306037  0.48976627    -0.19440
C535        C  0.49783621  0.72092146  0.60117939     0.03570
C536        C  0.49701924  0.72066596  0.64538857    -0.12580
C537        C  0.49637798  0.74913605  0.66881309     0.01070
C538        C  0.49670416  0.77813011  0.64561784    -0.11110
C539        C  0.49905209  0.77950754  0.60153489     0.03560
C540        C  0.49952200  0.75079484  0.57957584    -0.10530
H541        H  0.49661510  0.69756479  0.66057554     0.09150
H542        H  0.49458968  0.79994478  0.66078002     0.06680
H543        H  0.50163900  0.75195591  0.54557480     0.06530
C544        C  0.49787449  0.72027024  0.78364630     0.03570
C545        C  0.49389312  0.71899923  0.73971940    -0.12580
C546        C  0.49640642  0.74905233  0.71665223     0.01070
C547        C  0.49952291  0.77920229  0.74020639    -0.11110
C548        C  0.50140269  0.78000015  0.78439345     0.03560
C549        C  0.50197959  0.75106082  0.80562987    -0.10530
H550        H  0.48818679  0.69377229  0.72448551     0.09150
H551        H  0.49992326  0.80233709  0.72514044     0.06680
H552        H  0.50565287  0.75252091  0.83942626     0.06530
C553        C  0.25886315  0.78067404  0.78212325     0.03570
C554        C  0.25916134  0.77924152  0.73798837    -0.12580
C555        C  0.22760872  0.75431927  0.71509226     0.01070
C556        C  0.19622802  0.72900350  0.73820908    -0.11110
C557        C  0.19691806  0.72687259  0.78232116     0.03560
C558        C  0.22810239  0.75348260  0.80407185    -0.10530
H559        H  0.28458348  0.79767544  0.72205379     0.09150
H560        H  0.17078498  0.71047244  0.72241390     0.06680
H561        H  0.22864254  0.75286835  0.83805379     0.06530
C562        C  0.25424411  0.78530001  0.60028318     0.03570
C563        C  0.25398344  0.78539602  0.64448933    -0.12580
C564        C  0.22736993  0.75469541  0.66760955     0.01070
C565        C  0.20067584  0.72405782  0.64468036    -0.11110
C566        C  0.19878006  0.72482720  0.60060621     0.03560
C567        C  0.22558640  0.75570852  0.57873101    -0.10530
H568        H  0.27517970  0.80950454  0.66025529     0.09150
H569        H  0.18136975  0.69890060  0.66055081     0.06680
H570        H  0.22423159  0.75689599  0.54479921     0.06530
C571        C  0.19395753  0.47353362  0.60141186     0.03570
C572        C  0.22178462  0.47145322  0.57921216    -0.12580
C573        C  0.24671384  0.46387328  0.60020187     0.01070
C574        C  0.24246693  0.45716500  0.64384547    -0.11110
C575        C  0.21711734  0.46257040  0.66767928     0.03560
C576        C  0.19289184  0.47066727  0.64547025    -0.10530
H577        H  0.22407017  0.47608749  0.54565393     0.09150
H578        H  0.25978903  0.44838505  0.65889087     0.06680
H579        H  0.17353055  0.47603559  0.66191471     0.06530
C580        C  0.19315906  0.47152485  0.78187895     0.03570
C581        C  0.18908885  0.46214678  0.73891097    -0.12580
C582        C  0.21820238  0.46340387  0.71524650     0.01070
C583        C  0.24951417  0.46838074  0.73748515    -0.11110
C584        C  0.25310548  0.47493428  0.78112703     0.03560
C585        C  0.22587325  0.47893557  0.80222034    -0.10530
H586        H  0.16307393  0.45426862  0.72404218     0.09150
H587        H  0.27164618  0.46764825  0.72121637     0.06680
H588        H  0.23060141  0.48850195  0.83441691     0.06530
C589        C  0.77896498  0.26099289  0.78318656     0.03570
C590        C  0.78056149  0.25943500  0.73915977    -0.12580
C591        C  0.75095474  0.23181018  0.71563752     0.01070
C592        C  0.72022472  0.20481640  0.73843648    -0.11110
C593        C  0.71945183  0.20482468  0.78256153     0.03560
C594        C  0.74887391  0.23294682  0.80481606    -0.10530
H595        H  0.80517405  0.28059404  0.72412682     0.09150
H596        H  0.69603678  0.18375592  0.72267913     0.06680
H597        H  0.74739859  0.23401881  0.83879357     0.06530
C598        C  0.77389379  0.26646039  0.60147992     0.03570
C599        C  0.77603177  0.26440093  0.64534978    -0.12580
C600        C  0.75075634  0.23264486  0.66802267     0.01070
C601        C  0.72402967  0.20234197  0.64455044    -0.11110
C602        C  0.71982929  0.20487901  0.60097912     0.03560
C603        C  0.74510863  0.23712441  0.57976225    -0.10530
H604        H  0.79770620  0.28811238  0.66103234     0.09150
H605        H  0.70587916  0.17638663  0.65964310     0.06680
H606        H  0.74198465  0.24008437  0.54644380     0.06530
C607        C  0.71290510  0.51172766  0.60106315     0.03570
C608        C  0.74290043  0.51413901  0.57899054    -0.12580
C609        C  0.77208634  0.51436762  0.60045098     0.01070
C610        C  0.77221666  0.51471368  0.64466386    -0.11110
C611        C  0.74284533  0.51325997  0.66823698     0.03560
C612        C  0.71287945  0.51092706  0.64524075    -0.10530
H613        H  0.74350882  0.51584341  0.54497890     0.09150
H614        H  0.79545136  0.51546188  0.65979542     0.06680
H615        H  0.68850942  0.50746849  0.66071271     0.06530
C616        C  0.71497327  0.51438570  0.78380023     0.03570
C617        C  0.71552839  0.51552095  0.73962664    -0.12580
C618        C  0.74316096  0.51347658  0.71603317     0.01070
C619        C  0.77091627  0.51135176  0.73908122    -0.11110
C620        C  0.77138225  0.51185586  0.78313391     0.03560
C621        C  0.74330647  0.51306963  0.80540070    -0.10530
H622        H  0.69347678  0.51724849  0.72463151     0.09150
H623        H  0.79265450  0.50905800  0.72396284     0.06680
H624        H  0.74324729  0.51246674  0.83949383     0.06530
C625        C  0.45467898  0.19878154  0.78396491     0.03570
C626        C  0.44743060  0.19533743  0.74052882    -0.12580
C627        C  0.44679067  0.22369929  0.71702906     0.01070
C628        C  0.45054810  0.25445828  0.73973974    -0.11110
C629        C  0.45630635  0.25761624  0.78334900     0.03560
C630        C  0.45871910  0.22993326  0.80518385    -0.10530
H631        H  0.44335346  0.17047294  0.72573540     0.09150
H632        H  0.45022347  0.27711775  0.72422401     0.06680
H633        H  0.46533277  0.23356092  0.83839282     0.06530
C634        C  0.46454918  0.20361353  0.60444094     0.03570
C635        C  0.45272869  0.19773779  0.64657182    -0.12580
C636        C  0.44790317  0.22398415  0.66931524     0.01070
C637        C  0.44856124  0.25299497  0.64604222    -0.11110
C638        C  0.46119556  0.26022268  0.60421435     0.03560
C639        C  0.47012944  0.23581036  0.58420437    -0.10530
H640        H  0.44740684  0.17242038  0.66105885     0.09150
H641        H  0.43929507  0.27031779  0.66002613     0.06680
H642        H  0.48162131  0.24194861  0.55278452     0.06530
O643        O  0.51418668  0.58592818  0.52326463    -0.74860
O644        O  0.46308992  0.57751557  0.98858523    -0.53760
C645        C  0.48978072  0.59498459  0.51466326     0.78870
O646        O  0.57609722  0.52367606  0.85950308    -0.59460
O647        O  0.56967559  0.47419418  0.89628601    -0.52490
C648        C  0.58628184  0.50026320  0.86924727     0.70890
O649        O  0.51370097  0.58553888  0.86109977    -0.74010
O650        O  0.46385742  0.57809820  0.89823102    -0.54580
C651        C  0.48991672  0.59512055  0.87123821     0.76890
O652        O  0.57561241  0.52359461  0.52454463    -0.59160
O653        O  0.56935233  0.47406972  0.98783291    -0.52280
C654        C  0.58566030  0.50006506  0.51510966     0.73480
Zr655      Zr  0.52823572  0.53787452  0.00442037     2.54710
O656        O  0.58645231  0.59592955  0.00340253    -0.79720
O657        O  0.52628270  0.53590670  0.58098636    -0.93140
Zr658      Zr  0.52800538  0.53758595  0.87939637     2.64680
O659        O  0.58559007  0.59634384  0.87849909    -0.98100
O660        O  0.52484653  0.53431522  0.80290805    -0.80160
O661        O  0.51068890  0.55585778  0.94206671    -0.83510
O662        O  0.54686118  0.52100661  0.94180602    -2.18220
O663        O  0.45217481  0.39797693  0.52788985    -0.66900
O664        O  0.49890841  0.40232856  0.98666610    -0.51470
C665        C  0.47490699  0.38748698  0.51623426     0.71860
O666        O  0.38667107  0.45795266  0.85894613    -0.59810
O667        O  0.39290626  0.50701735  0.89716781    -0.51790
C668        C  0.37711029  0.48176020  0.86914086     0.73670
O669        O  0.44773377  0.39474573  0.86035550    -0.71210
O670        O  0.49925694  0.40339172  0.89489887    -0.49880
C671        C  0.47242496  0.38610119  0.86900759     0.75050
O672        O  0.38595265  0.45561284  0.52524716    -0.66540
O673        O  0.39104962  0.50420126  0.98710880    -0.53730
C674        C  0.37525499  0.47836728  0.51460430     0.73430
Zr675      Zr  0.43448623  0.44267655  0.00533411     2.77540
O676        O  0.37739622  0.38346729  0.00475188    -0.97290
O677        O  0.43617155  0.44602410  0.58180644    -0.78110
Zr678      Zr  0.43363038  0.44270712  0.87987446     2.70070
O679        O  0.37524284  0.38483313  0.87969802    -0.79350
O680        O  0.43728246  0.44608069  0.80341987    -0.98440
Zr681      Zr  0.44516704  0.52483023  0.94293507     2.21500
Zr682      Zr  0.51683042  0.45535209  0.94169632     2.11130
O683        O  0.45119579  0.42445049  0.94230740    -2.47130
O684        O  0.41525071  0.45930799  0.94296099    -0.79150
O685        O  0.49970818  0.47262857  0.50553331    -0.71340
O686        O  0.46274978  0.50791280  0.87907407    -2.32300
O687        O  0.46303344  0.50789597  0.50637856    -2.28510
O688        O  0.49896444  0.47229265  0.87826800    -0.73100
H689        H  0.57333211  0.53190950  0.94176858     0.78890
H690        H  0.45467821  0.51592768  0.85491688     0.79980
H691        H  0.44077731  0.39801040  0.94242523     0.82210
H692        H  0.45496186  0.51575385  0.53074260     0.79810
H693        H  0.50088153  0.53219909  0.79584591     0.42850
H694        H  0.46193741  0.44968899  0.79666846     0.41820
H695        H  0.36599687  0.38223358  0.90889777     0.41500
H696        H  0.38313630  0.36687805  0.98833127     0.39430
H697        H  0.46266341  0.45770501  0.58889817     0.42560
H698        H  0.50369809  0.53651624  0.58862835     0.37350
H699        H  0.58631847  0.60745065  0.97627463     0.43460
H700        H  0.60245260  0.59255401  0.89685032     0.39880
H701        H  0.37449921  0.37439672  0.53404690     0.44800
H702        H  0.54677496  0.56029691  0.58975972     0.43520
H703        H  0.59549361  0.59820008  0.84974076     0.43660
H704        H  0.41979905  0.42067028  0.79389288     0.44010
O705        O  0.04657643  0.59238961  0.85986954    -0.74860
O706        O  0.08941552  0.58455756  0.89568670    -0.53760
C707        C  0.07991730  0.60158961  0.86936660     0.78870
O708        O  0.92257963  0.52812706  0.52406373    -0.59460
O709        O  0.87958105  0.47945458  0.98608270    -0.52490
C710        C  0.88904717  0.50487807  0.51403853     0.70890
O711        O  0.04671743  0.59064632  0.52333249    -0.74010
O712        O  0.08943285  0.58363950  0.98640885    -0.54580
C713        C  0.08018978  0.60017251  0.51377945     0.76890
O714        O  0.92227959  0.53023642  0.85981796    -0.59160
O715        O  0.87953804  0.47781413  0.89331803    -0.52280
C716        C  0.88888247  0.50495340  0.86793984     0.73480
Zr717      Zr  0.98446718  0.54385260  0.87850651     2.54710
O718        O  0.98467786  0.60204310  0.87841136    -0.79720
O719        O  0.98398450  0.54056605  0.80201217    -0.93140
Zr720      Zr  0.98455631  0.54324123  0.00346112     2.64680
O721        O  0.98537849  0.60177130  0.00306498    -0.98100
O722        O  0.98410240  0.54086362  0.58001373    -0.80160
O723        O  0.02020647  0.56185402  0.94095633    -0.83510
O724        O  0.94894293  0.52655109  0.94104623    -2.18220
O725        O  0.92248719  0.40034181  0.85917122    -0.66900
O726        O  0.87933069  0.40778578  0.89498285    -0.51470
C727        C  0.88907166  0.39082994  0.86876631     0.71860
O728        O  0.04577401  0.46248095  0.52227623    -0.59810
O729        O  0.08922799  0.51296077  0.98695119    -0.51790
C730        C  0.07947388  0.48658711  0.51371385     0.73670
O731        O  0.92134175  0.40122962  0.52308808    -0.71210
O732        O  0.87875809  0.40920721  0.98696679    -0.49880
C733        C  0.88805108  0.39247813  0.51382875     0.75050
O734        O  0.04628760  0.46381543  0.85700245    -0.66540
O735        O  0.08930407  0.51181903  0.89627296    -0.53730
C736        C  0.07965869  0.48666033  0.86802338     0.73430
Zr737      Zr  0.98437289  0.44913707  0.87770516     2.77540
O738        O  0.98620191  0.39195857  0.87665727    -0.97290
O739        O  0.98334918  0.45242934  0.80130992    -0.78110
Zr740      Zr  0.98380406  0.44840371  0.00296776     2.70070
O741        O  0.98275208  0.38980953  0.00389692    -0.79350
O742        O  0.98463186  0.45248662  0.57939496    -0.98440
Zr743      Zr  0.05504050  0.53116951  0.94076026     2.21500
Zr744      Zr  0.91375251  0.46085952  0.94039812     2.11130
O745        O  0.94870538  0.43028471  0.94027294    -2.47130
O746        O  0.01963847  0.46560882  0.94042299    -0.79150
O747        O  0.94849808  0.47850672  0.87682301    -0.71340
O748        O  0.02003321  0.51360338  0.50425628    -2.32300
O749        O  0.02034519  0.51443098  0.87714716    -2.28510
O750        O  0.94818981  0.47792874  0.50409341    -0.73100
H751        H  0.93317690  0.53720621  0.94125295     0.78890
H752        H  0.03592845  0.52140197  0.52858749     0.79980
H753        H  0.93286559  0.40381200  0.94036164     0.82210
H754        H  0.03642834  0.52256583  0.85290088     0.79810
H755        H  0.00400027  0.53570190  0.58738312     0.42850
H756        H  0.96344004  0.45574714  0.58650152     0.41820
H757        H  0.99150644  0.38791584  0.97556185     0.41500
H758        H  0.96577086  0.37496268  0.89532974     0.39430
H759        H  0.96488193  0.45992987  0.79526975     0.42560
H760        H  0.00694807  0.54064564  0.79451528     0.37350
H761        H  0.99430680  0.61279191  0.90647577     0.43460
H762        H  0.96389599  0.59722806  0.98577034     0.39880
H763        H  0.97795467  0.38190154  0.84802036     0.44800
H764        H  0.98829220  0.56495327  0.79265735     0.43520
H765        H  0.97849769  0.60447713  0.53211558     0.43660
H766        H  0.97717946  0.42725126  0.58913702     0.44010
O767        O  0.52107572  0.93302468  0.86179005    -0.74860
O768        O  0.47068781  0.89055041  0.89813075    -0.53760
C769        C  0.49694464  0.89958714  0.87137077     0.78870
O770        O  0.58130710  0.05775592  0.52608880    -0.59460
O771        O  0.57691147  0.10070477  0.98597223    -0.52490
C772        C  0.59201717  0.09109953  0.51470813     0.70890
O773        O  0.52054788  0.93296971  0.52399023    -0.74010
O774        O  0.46980925  0.89077027  0.98819550    -0.54580
C775        C  0.49607962  0.89951735  0.51453281     0.76890
O776        O  0.58413825  0.05729519  0.86096524    -0.59160
O777        O  0.57467962  0.10052419  0.89351152    -0.52280
C778        C  0.59244264  0.09078092  0.86859218     0.73480
Zr779      Zr  0.53523398  0.99531323  0.87994740     2.54710
O780        O  0.59301539  0.99482953  0.87946178    -0.79720
O781        O  0.53261272  0.99561025  0.80344398    -0.93140
Zr782      Zr  0.53493360  0.99554834  0.00504183     2.64680
O783        O  0.59312789  0.99580886  0.00411503    -0.98100
O784        O  0.53252690  0.99514849  0.58160379    -0.80160
O785        O  0.51772418  0.95985485  0.94266959    -0.83510
O786        O  0.55359574  0.03105256  0.94224871    -2.18220
O787        O  0.45508752  0.05672536  0.85791473    -0.66900
O788        O  0.50397262  0.10027987  0.89568289    -0.51470
C789        C  0.47820977  0.09024184  0.86816954     0.71860
O790        O  0.39158243  0.93545288  0.52297342    -0.59810
O791        O  0.39873870  0.89191685  0.98819146    -0.51790
C792        C  0.38161204  0.90175536  0.51414010     0.73670
O793        O  0.45879272  0.05928350  0.52712285    -0.71210
O794        O  0.50620470  0.10179820  0.98665895    -0.49880
C795        C  0.48191205  0.09257377  0.51588079     0.75050
O796        O  0.39260673  0.93234207  0.86062156    -0.66540
O797        O  0.39971178  0.89001949  0.89808405    -0.53730
C798        C  0.38299409  0.89888355  0.87074596     0.73430
Zr799      Zr  0.44048813  0.99502653  0.87936533     2.77540
O800        O  0.38214934  0.99447172  0.87937043    -0.97290
O801        O  0.44290737  0.99369033  0.80290686    -0.78110
Zr802      Zr  0.44128469  0.99684673  0.00480632     2.70070
O803        O  0.38525097  0.00062891  0.00552335    -0.79350
O804        O  0.44313286  0.99384557  0.58117270    -0.98440
Zr805      Zr  0.45222211  0.92536701  0.94295847     2.21500
Zr806      Zr  0.52344257  0.06652918  0.94108773     2.11130
O807        O  0.45783788  0.03135672  0.94155165    -2.47130
O808        O  0.42208649  0.96055604  0.94265363    -0.79150
O809        O  0.50587441  0.03115238  0.87797653    -0.71340
O810        O  0.46973333  0.96022969  0.50643102    -2.32300
O811        O  0.46993032  0.95940120  0.87890124    -2.28510
O812        O  0.50644374  0.03232196  0.50513302    -0.73100
H813        H  0.58005509  0.04681445  0.94225549     0.78890
H814        H  0.46142310  0.94425691  0.53075196     0.79980
H815        H  0.44727735  0.04721721  0.94155830     0.82210
H816        H  0.46189104  0.94313644  0.85483807     0.79810
H817        H  0.50811736  0.97387424  0.58885980     0.42850
H818        H  0.46800540  0.01404645  0.58892267     0.41820
H819        H  0.37337948  0.99002115  0.97817897     0.41500
H820        H  0.38666126  0.01597493  0.89672224     0.39430
H821        H  0.46910667  0.01077425  0.79586214     0.42560
H822        H  0.50981053  0.97248052  0.79604454     0.37350
H823        H  0.59432119  0.98561709  0.90770614     0.43460
H824        H  0.60993125  0.01758084  0.98697616     0.39880
H825        H  0.37965486  0.00141606  0.85031164     0.44800
H826        H  0.55283452  0.99151831  0.79416297     0.43520
H827        H  0.60264187  0.00252800  0.53317604     0.43660
H828        H  0.42619809  0.00227960  0.59114467     0.44010
C829        C  0.45905316  0.29210152  0.53802015    -0.20870
C830        C  0.46563309  0.29354231  0.58163990    -0.08910
C831        C  0.47669306  0.32713553  0.60300153     0.29950
C832        C  0.47932066  0.35748410  0.58154725    -0.20870
C833        C  0.47278512  0.35567802  0.53824015    -0.08930
C834        C  0.46328050  0.32303908  0.51640388     0.29950
F835        F  0.45697046  0.32075519  0.97437045    -0.19450
H836        H  0.45012745  0.26685592  0.52051358     0.18320
H837        H  0.48724010  0.38277079  0.59861921     0.18320
F838        F  0.48617390  0.33131657  0.64426946    -0.19440
C839        C  0.46308309  0.16992594  0.53826401    -0.20870
C840        C  0.47104437  0.17615087  0.58154739    -0.08910
C841        C  0.48454399  0.15544796  0.60231574     0.29950
C842        C  0.48794901  0.12820835  0.58073571    -0.20870
C843        C  0.47974093  0.12223109  0.53784193    -0.08930
C844        C  0.46802299  0.14373673  0.51648935     0.29950
F845        F  0.46005908  0.13843493  0.97486840    -0.19450
H846        H  0.45226654  0.18477901  0.52122039     0.18320
H847        H  0.49753591  0.11206325  0.59739845     0.18320
F848        F  0.49542200  0.16192879  0.64311119    -0.19440
C849        C  0.43993642  0.28691516  0.84159251    -0.20870
C850        C  0.46135797  0.29082173  0.80586529    -0.08910
C851        C  0.48709003  0.32649874  0.79162040     0.29950
C852        C  0.49109113  0.35757042  0.81280238    -0.20870
C853        C  0.46920644  0.35347443  0.84797571    -0.08930
C854        C  0.44352515  0.31801762  0.86226474     0.29950
F855        F  0.42181623  0.31356309  0.89603040    -0.19450
H856        H  0.41987165  0.25972400  0.85291195     0.18320
H857        H  0.51095014  0.38484743  0.80149628     0.18320
F858        F  0.50867984  0.33129181  0.75761288    -0.19440
C859        C  0.48165440  0.15720762  0.78665960    -0.20870
C860        C  0.46088573  0.17108405  0.80621565    -0.08910
C861        C  0.44668480  0.15847682  0.84686692     0.29950
C862        C  0.45319145  0.13268212  0.86715596    -0.20870
C863        C  0.47382948  0.11904933  0.84743620    -0.08930
C864        C  0.48781359  0.13118339  0.80691732     0.29950
F865        F  0.50719734  0.11768823  0.78691582    -0.19450
H866        H  0.49336453  0.16667954  0.75566345     0.18320
H867        H  0.44128601  0.12256536  0.89789955     0.18320
F868        F  0.42542888  0.16998370  0.86642547    -0.19440
C869        C  0.63988021  0.53341359  0.81997913    -0.20870
C870        C  0.61971368  0.50404638  0.84812463    -0.08910
C871        C  0.63226019  0.47900008  0.85594016     0.29950
C872        C  0.66375818  0.48320571  0.83569766    -0.20870
C873        C  0.68331251  0.51213569  0.80714868    -0.08930
C874        C  0.67127779  0.53742894  0.79966610     0.29950
F875        F  0.69013809  0.56628531  0.77306090    -0.19450
H876        H  0.63139595  0.55343778  0.81352526     0.18320
H877        H  0.67243798  0.46323389  0.84158606     0.18320
F878        F  0.61404427  0.45011535  0.88267813    -0.19440
C879        C  0.82891800  0.54139294  0.82582600    -0.20870
C880        C  0.80098705  0.50995248  0.80578910    -0.08910
C881        C  0.80203101  0.47700779  0.80635901     0.29950
C882        C  0.83054985  0.47547489  0.82713147    -0.20870
C883        C  0.85892103  0.50705176  0.84653020    -0.08930
C884        C  0.85799037  0.54012765  0.84574945     0.29950
F885        F  0.88464894  0.57083997  0.86510653    -0.19450
H886        H  0.82838909  0.56697810  0.82551770     0.18320
H887        H  0.83086360  0.44977965  0.82747949     0.18320
F888        F  0.77537357  0.44636814  0.78691290    -0.19440
C889        C  0.63417468  0.48233896  0.52362553    -0.20870
C890        C  0.61851758  0.50349399  0.53697848    -0.08910
C891        C  0.63483095  0.52796388  0.57112023     0.29950
C892        C  0.66567126  0.53075298  0.59127195    -0.20870
C893        C  0.68100618  0.50935942  0.57811442    -0.08930
C894        C  0.66503093  0.48516724  0.54388428     0.29950
F895        F  0.67844551  0.46331746  0.53080810    -0.19450
H896        H  0.62247194  0.46336607  0.99748009     0.18320
H897        H  0.67766724  0.54979102  0.61733004     0.18320
F898        F  0.62092350  0.54900322  0.58561233    -0.19440
C899        C  0.82266824  0.48680888  0.52220414    -0.20870
C900        C  0.85936058  0.50794413  0.53590822    -0.08910
C901        C  0.86711887  0.53201033  0.57035289     0.29950
C902        C  0.83883542  0.53465315  0.59026249    -0.20870
C903        C  0.80213663  0.51313195  0.57693249    -0.08930
C904        C  0.79434036  0.48917883  0.54247134     0.29950
F905        F  0.75919644  0.46694072  0.52923058    -0.19450
H906        H  0.81567937  0.46805666  0.99587138     0.18320
H907        H  0.84572551  0.55357867  0.61640400     0.18320
F908        F  0.90188437  0.55270960  0.58546435    -0.19440
C909        C  0.65280966  0.15669795  0.59871796    -0.20870
C910        C  0.68740725  0.17488396  0.57850716    -0.08910
C911        C  0.68999704  0.16488112  0.53673299     0.29950
C912        C  0.65855442  0.13818311  0.51572760    -0.20870
C913        C  0.62437759  0.12035238  0.53624220    -0.08930
C914        C  0.62172357  0.12933542  0.57803175     0.29950
F915        F  0.58891792  0.11197207  0.59860228    -0.19450
H916        H  0.64958327  0.16400153  0.63048580     0.18320
H917        H  0.66099974  0.13079236  0.98369151     0.18320
F918        F  0.72293012  0.17996855  0.51651513    -0.19440
C919        C  0.84142542  0.36571814  0.57078091    -0.20870
C920        C  0.85827573  0.36055810  0.53541155    -0.08910
C921        C  0.84657960  0.32478524  0.52084820     0.29950
C922        C  0.81864423  0.29435976  0.54205786    -0.20870
C923        C  0.80209680  0.29923256  0.57815706    -0.08930
C924        C  0.81352338  0.33532723  0.59213052     0.29950
F925        F  0.79736946  0.34126636  0.62595047    -0.19450
H926        H  0.85006063  0.39331322  0.58195652     0.18320
H927        H  0.81042023  0.26689531  0.53077489     0.18320
F928        F  0.86226899  0.31937074  0.98620468    -0.19440
C929        C  0.69097061  0.15342769  0.83468652    -0.20870
C930        C  0.68690799  0.17614035  0.80532801    -0.08910
C931        C  0.65161966  0.17093668  0.79745456     0.29950
C932        C  0.62093078  0.14340297  0.81872608    -0.20870
C933        C  0.62495145  0.12021256  0.84727283    -0.08930
C934        C  0.66013073  0.12532416  0.85522606     0.29950
F935        F  0.66462821  0.10351006  0.88331285    -0.19450
H936        H  0.71797354  0.15711727  0.84111878     0.18320
H937        H  0.59391558  0.13975855  0.81245694     0.18320
F938        F  0.64696139  0.19278690  0.76959218    -0.19440
C939        C  0.81467432  0.32916640  0.79284882    -0.20870
C940        C  0.80711622  0.29398855  0.80593357    -0.08910
C941        C  0.82602137  0.29093259  0.84077539     0.29950
C942        C  0.85256258  0.32270862  0.86147752    -0.20870
C943        C  0.85995761  0.35769866  0.84821537    -0.08930
C944        C  0.84074022  0.36080659  0.81396086     0.29950
F945        F  0.84776109  0.39445430  0.80046342    -0.19450
H946        H  0.80011775  0.33206967  0.76635405     0.18320
H947        H  0.86748642  0.32008515  0.88777230     0.18320
F948        F  0.81954430  0.25740413  0.85400892    -0.19440
C949        C  0.32032718  0.49334686  0.78515807    -0.20870
C950        C  0.28538729  0.47778984  0.80451949    -0.08910
C951        C  0.28139574  0.46361867  0.84577666     0.29950
C952        C  0.31153139  0.46543400  0.86677985    -0.20870
C953        C  0.34579368  0.48020802  0.84681434    -0.08930
C954        C  0.35005969  0.49399568  0.80581075     0.29950
F955        F  0.38313088  0.50848346  0.78596196    -0.19450
H956        H  0.32489132  0.50524395  0.75400256     0.18320
H957        H  0.30793522  0.45453504  0.89841529     0.18320
F958        F  0.24816865  0.44667332  0.86543875    -0.19440
C959        C  0.12961533  0.47125020  0.86854432    -0.20630
C960        C  0.10894955  0.48354380  0.84650016    -0.08910
C961        C  0.11553683  0.49153270  0.80354131     0.29950
C962        C  0.14320090  0.48812997  0.78309321    -0.20870
C963        C  0.16390103  0.47522565  0.80467606    -0.08930
C964        C  0.15635135  0.46638211  0.84782885     0.29950
F965        F  0.17362533  0.45173155  0.86985269    -0.19450
H966        H  0.12423313  0.46434810  0.90162144     0.18320
H967        H  0.14853118  0.49598359  0.75029651     0.18320
F968        F  0.09557042  0.50320236  0.78153688    -0.19440
C969        C  0.30892645  0.45994445  0.51457485    -0.20870
C970        C  0.34250120  0.47452132  0.53600151    -0.08910
C971        C  0.34435591  0.48430906  0.57838942     0.29950
C972        C  0.31320176  0.48071165  0.59875448    -0.20870
C973        C  0.27910333  0.46597205  0.57772472    -0.08930
C974        C  0.27727070  0.45505525  0.53528679     0.29950
F975        F  0.24490455  0.43866796  0.01399807    -0.19450
H976        H  0.30707710  0.45157591  0.98200084     0.18320
H977        H  0.31611281  0.49016454  0.63096604     0.18320
F978        F  0.37654572  0.49804183  0.59985473    -0.19440
C979        C  0.12822658  0.45615622  0.59103407    -0.20870
C980        C  0.16528333  0.47796784  0.57895264    -0.08910
C981        C  0.17403288  0.50306712  0.54551828     0.29950
C982        C  0.14612520  0.50575732  0.52453786    -0.20870
C983        C  0.10893255  0.48366730  0.53644266    -0.08930
C984        C  0.10039373  0.45892966  0.57034514     0.29950
F985        F  0.06519556  0.43740311  0.58397389    -0.19450
H986        H  0.12064489  0.43643727  0.61645791     0.18320
H987        H  0.15375351  0.52524103  0.99887207     0.18320
F988        F  0.20956151  0.52570334  0.53372111    -0.19440
C989        C  0.14628986  0.64966236  0.51952104    -0.20870
C990        C  0.11025396  0.63237651  0.53584929    -0.08910
C991        C  0.10365494  0.64597464  0.57345627     0.29950
C992        C  0.13247455  0.67611149  0.59390121    -0.20870
C993        C  0.16852866  0.69322924  0.57772307    -0.08930
C994        C  0.17515343  0.67964979  0.54015583     0.29950
F995        F  0.20966345  0.69447652  0.02394651    -0.19450
H996        H  0.15229410  0.63988066  0.99069104     0.18320
H997        H  0.12650000  0.68616578  0.62253944     0.18320
F998        F  0.06958625  0.62981655  0.59113985    -0.19440
C999        C  0.29959086  0.85231692  0.58836456    -0.20870
C1000       C  0.28546647  0.81534251  0.57666730    -0.08910
C1001       C  0.30272023  0.80709820  0.54376693     0.29950
C1002       C  0.33357401  0.83526568  0.52344402    -0.20870
C1003       C  0.34814142  0.87230902  0.53545428    -0.08930
C1004       C  0.33054058  0.88054334  0.56816777     0.29950
F1005       F  0.34342799  0.91572530  0.58140166    -0.19450
H1006       H  0.28671885  0.85940917  0.61342697     0.18320
H1007       H  0.34631400  0.82787325  0.99852089     0.18320
F1008       F  0.29075849  0.77164513  0.53232382    -0.19440
C1009       C  0.14962802  0.65976163  0.78712365    -0.20870
C1010       C  0.16591053  0.69532231  0.80492855    -0.08910
C1011       C  0.15300121  0.69961670  0.84440226     0.29950
C1012       C  0.12514548  0.66889110  0.86556749    -0.20870
C1013       C  0.10941827  0.63368922  0.84753868    -0.08930
C1014       C  0.12146756  0.62932933  0.80799829     0.29950
F1015       F  0.10614752  0.59551646  0.78975366    -0.19450
H1016       H  0.15913064  0.65531028  0.75717531     0.18320
H1017       H  0.11558031  0.67258495  0.89588136     0.18320
F1018       F  0.16648021  0.73344001  0.86211322    -0.19440
C1019       C  0.33793895  0.87567593  0.81134193    -0.20870
C1020       C  0.35077526  0.86850772  0.84891226    -0.08910
C1021       C  0.33276593  0.83214700  0.86475531     0.29950
C1022       C  0.30328445  0.80374475  0.84283662    -0.20870
C1023       C  0.29070991  0.81088141  0.80500384    -0.08930
C1024       C  0.30823942  0.84740699  0.78972273     0.29950
F1025       F  0.29614611  0.85618036  0.75440476    -0.19450
H1026       H  0.35097250  0.90331301  0.79843585     0.18320
H1027       H  0.29049276  0.77602656  0.85543034     0.18320
F1028       F  0.34315831  0.82394427  0.90173346    -0.19440
C1029       C  0.51296807  0.64075652  0.81227377    -0.20870
C1030       C  0.49267382  0.62784538  0.84982022    -0.08910
C1031       C  0.47518855  0.64644239  0.86617135     0.29950
C1032       C  0.47715448  0.67644445  0.84464466    -0.20870
C1033       C  0.49684854  0.68887852  0.80667825    -0.08930
C1034       C  0.51522154  0.67095911  0.79098862     0.29950
F1035       F  0.53598589  0.68297807  0.75547941    -0.19450
H1036       H  0.52701819  0.62730225  0.79905565     0.18320
H1037       H  0.46275074  0.68966810  0.85748911     0.18320
F1038       F  0.45651014  0.63603670  0.90318368    -0.19440
C1039       C  0.47889782  0.83302564  0.86495613    -0.20870
C1040       C  0.49947744  0.86940542  0.84991903    -0.08910
C1041       C  0.52182964  0.87624881  0.81400252     0.29950
C1042       C  0.52309803  0.84730873  0.79371198    -0.20870
C1043       C  0.50193034  0.81086120  0.80825039    -0.08930
C1044       C  0.47994484  0.80405956  0.84441830     0.29950
F1045       F  0.45819473  0.76923301  0.85905838    -0.19450
H1046       H  0.46150260  0.82677670  0.89248993     0.18320
H1047       H  0.54056470  0.85346389  0.76626232     0.18320
F1048       F  0.54181987  0.91068755  0.79760677    -0.19440
C1049       C  0.51843304  0.67469724  0.59117488    -0.20870
C1050       C  0.49676724  0.68964038  0.57777361    -0.08910
C1051       C  0.47323416  0.67358081  0.54304745     0.29950
C1052       C  0.47130213  0.64307720  0.52264308    -0.20870
C1053       C  0.49265472  0.62778735  0.53634478    -0.08930
C1054       C  0.51642536  0.64412854  0.57095326     0.29950
F1055       F  0.53732002  0.63031658  0.58600991    -0.19450
H1056       H  0.53701594  0.68670064  0.61756660     0.18320
H1057       H  0.45277942  0.63127707  0.99617521     0.18320
F1058       F  0.45106072  0.68646355  0.52966931    -0.19440
C1059       C  0.52231621  0.87615107  0.56936578    -0.20870
C1060       C  0.49795120  0.86883925  0.53561399    -0.08910
C1061       C  0.47513897  0.83186064  0.52276587     0.29950
C1062       C  0.47611426  0.80321628  0.54398326    -0.20870
C1063       C  0.49974500  0.81053689  0.57829822    -0.08930
C1064       C  0.52328198  0.84738361  0.59049524     0.29950
F1065       F  0.54757885  0.85564402  0.62249359    -0.19450
H1066       H  0.54048383  0.90418268  0.57979430     0.18320
H1067       H  0.45775580  0.77506806  0.53402177     0.18320
F1068       F  0.45169739  0.82306037  0.98976628    -0.19440
loop_ 
_geom_bond_atom_site_label_1 
_geom_bond_atom_site_label_2 
_geom_bond_distance 
_geom_bond_site_symmetry_2 
_ccdc_geom_bond_type 
C1            C2   1.406       .  A
C1            C6   1.399       .  A
C1          C516   1.488       .  S
C2            C3   1.417       .  A
C2            H7   1.075       .  S
C3            C4   1.416       .  A
C3           C12   1.521       .  S
C4            C5   1.404       .  A
C4            H8   1.075       .  S
C5            C6   1.399       .  A
C5          C529   1.483       .  S
C6            H9   1.084       .  S
C10          C11   1.405       .  A
C10          C15   1.399       .  A
C10         C499   1.488       .  S
C11          C12   1.415       .  A
C11          H16   1.075       .  S
C12          C13   1.417       .  A
C13          C14   1.407       .  A
C13          H17   1.074       .  S
C14          C15   1.399       .  A
C14         C509   1.489       .  S
C15          H18   1.083       .  S
C19          C20   1.405       .  A
C19          C24   1.405       .  A
C19         C489   1.491       .  S
C20          C21   1.410       .  A
C20          H25   1.078       .  S
C21          C22   1.412       .  A
C21          C30   1.510       .  S
C22          C23   1.407       .  A
C22          H26   1.079       .  S
C23          C24   1.404       .  A
C23         C476   1.493       .  S
C24          H27   1.081       .  S
C28          C29   1.405       .  A
C28          C33   1.400       .  A
C28         C466   1.486       .  S
C29          C30   1.414       .  A
C29          H34   1.078       .  S
C30          C31   1.412       .  A
C31          C32   1.405       .  A
C31          H35   1.079       .  S
C32          C33   1.400       .  A
C32         C459   1.486       .  S
C33          H36   1.083       .  S
C37          C38   1.402       .  A
C37          C42   1.405       .  A
C37         C446   1.490       .  S
C38          C39   1.406       .  A
C38          H43   1.080       .  S
C39          C40   1.409       .  A
C39         C439   1.497       .  S
C40          C41   1.412       .  A
C40          H44   1.078       .  S
C41          C42   1.412       .  A
C41          C48   1.513       .  S
C42          H45   1.079       .  S
C46          C47   1.408       .  A
C46          C51   1.405       .  A
C46         C429   1.497       .  S
C47          C48   1.411       .  A
C47          H52   1.079       .  S
C48          C49   1.413       .  A
C49          C50   1.408       .  A
C49          H53   1.075       .  S
C50          C51   1.404       .  A
C50         C416   1.497       .  S
C51          H54   1.081       .  S
C55          C56   1.404       .  A
C55          C60   1.399       .  A
C55         C406   1.481       .  S
C56          C57   1.415       .  A
C56          H61   1.077       .  S
C57          C58   1.415       .  A
C57          C66   1.514       .  S
C58          C59   1.403       .  A
C58          H62   1.078       .  S
C59          C60   1.398       .  A
C59         C396   1.478       .  S
C60          H63   1.084       .  S
C64          C65   1.403       .  A
C64          C69   1.400       .  A
C64         C389   1.484       .  S
C65          C66   1.413       .  A
C65          H70   1.076       .  S
C66          C67   1.414       .  A
C67          C68   1.408       .  A
C67          H71   1.078       .  S
C68          C69   1.402       .  A
C68         C376   1.492       .  S
C69          H72   1.082       .  S
C73          C74   1.398       .  A
C73          C78   1.405       .  A
C73         C359   1.484       .  S
C74          C75   1.398       .  A
C74          H79   1.083       .  S
C75          C76   1.406       .  A
C75         C369   1.487       .  S
C76          C77   1.416       .  A
C76          H80   1.074       .  S
C77          C78   1.416       .  A
C77          C84   1.520       .  S
C78          H81   1.076       .  S
C82          C83   1.405       .  A
C82          C87   1.399       .  A
C82         C339   1.481       .  S
C83          C84   1.417       .  A
C83          H88   1.076       .  S
C84          C85   1.417       .  A
C85          C86   1.401       .  A
C85          H89   1.076       .  S
C86          C87   1.395       .  A
C86         C346   1.473       .  S
C87          H90   1.084       .  S
C91          C92   1.406       .  A
C91          C96   1.402       .  A
C91         C326   1.490       .  S
C92          C93   1.416       .  A
C92          H97   1.075       .  S
C93          C94   1.415       .  A
C93         C102   1.517       .  S
C94          C95   1.402       .  A
C94          H98   1.076       .  S
C95          C96   1.399       .  A
C95         C316   1.482       .  S
C96          H99   1.083       .  S
C100        C101   1.406       .  A
C100        C105   1.405       .  A
C100        C306   1.497       .  S
C101        C102   1.412       .  A
C101        H106   1.072       .  S
C102        C103   1.412       .  A
C103        C104   1.406       .  A
C103        H107   1.076       .  S
C104        C105   1.405       .  A
C104        C296   1.496       .  S
C105        H108   1.082       .  S
O109        C111   1.287       .  A
O109       Zr655   2.438       .  S
O110        C645   1.287       .  A
O110       Zr147   2.425       .  S
C111        C519   1.487       .  S
C111        O644   1.287   1_554  A
O112        C114   1.289       .  A
O112       Zr124   2.446       .  S
O113        C114   1.286       .  A
O113       Zr148   2.419       .  S
C114        C336   1.488       .  S
O115        C117   1.288       .  A
O115       Zr124   2.439       .  S
O116        C117   1.286       .  A
O116       Zr147   2.421       .  S
C117        C496   1.483       .  S
O118        C120   1.286       .  A
O118       Zr655   2.432       .  S
O119        C654   1.288       .  A
O119       Zr148   2.429       .  S
C120        C356   1.486       .  S
C120        O653   1.288   1_554  A
Zr121       O643   2.438       .  S
Zr121       O652   2.432       .  S
Zr121       O122   2.434       .  S
Zr121       O657   2.435       .  S
Zr121       O127   2.367       .  S
Zr121       O128   2.370       .  S
Zr121       O685   2.372       .  S
Zr121       O687   2.369       .  S
O122        H165   0.990       .  S
O123       Zr655   2.435       .  S
O123        H164   0.990       .  S
O123        H168   0.990       .  S
Zr124       O125   2.435       .  S
Zr124       O126   2.436       .  S
Zr124       O128   2.367       .  S
Zr124       O127   2.373       .  S
Zr124       O152   2.371       .  S
Zr124       O154   2.372       .  S
O125        H166   0.990       .  S
O125        H169   0.990       .  S
O126        H159   0.990       .  S
O127       Zr147   2.379       .  S
O128       Zr148   2.383       .  S
O128        H155   0.966       .  S
O129        C131   1.288       .  A
O129       Zr675   2.443       .  S
O130        C665   1.286       .  A
O130       Zr148   2.423       .  S
C131        C299   1.468       .  S
C131        O664   1.286   1_554  A
O132        C134   1.289       .  A
O132       Zr144   2.449       .  S
O133        C134   1.285       .  A
O133       Zr147   2.419       .  S
C134        C419   1.467       .  S
O135        C137   1.287       .  A
O135       Zr144   2.442       .  S
O136        C137   1.286       .  A
O136       Zr148   2.426       .  S
C137        C319   1.465       .  S
O138        C140   1.286       .  A
O138       Zr675   2.437       .  S
O139        C674   1.286       .  A
O139       Zr147   2.427       .  S
C140        C436   1.466       .  S
C140        O673   1.286   1_554  A
Zr141       O663   2.443       .  S
Zr141       O672   2.437       .  S
Zr141       O142   2.435       .  S
Zr141       O677   2.434       .  S
Zr141       O149   2.370       .  S
Zr141       O150   2.375       .  S
Zr141       O687   2.371       .  S
Zr141       O685   2.370       .  S
O142        H162   0.990       .  S
O142        H701   0.990       .  S
O143       Zr675   2.434       .  S
O143        H163   0.990       .  S
Zr144       O145   2.433       .  S
Zr144       O146   2.435       .  S
Zr144       O150   2.373       .  S
Zr144       O149   2.375       .  S
Zr144       O154   2.375       .  S
Zr144       O152   2.369       .  S
O145        H161   0.990       .  S
O146        H160   0.990       .  S
O146        H170   0.990       .  S
Zr147       O150   2.378       .  S
Zr147       O152   2.384       .  S
Zr147       O687   2.382       .  S
Zr148       O149   2.383       .  S
Zr148       O154   2.382       .  S
Zr148       O685   2.381       .  S
O149        H157   0.966       .  S
O151       Zr655   2.372       .  S
O151       Zr675   2.370       .  S
O151       Zr682   2.381   1_554  S
O152        H156   0.966       .  S
O153       Zr655   2.369       .  S
O153       Zr675   2.371       .  S
O153       Zr681   2.382   1_554  S
O153        H158   0.966       .  S
H167        O676   0.990       .  S
O171        C173   1.287       .  A
O171       Zr183   2.440   1_455  S
O172        C173   1.287       .  A
O172       Zr209   2.429       .  S
C173        C479   1.466       .  S
O174        C176   1.287       .  A
O174       Zr720   2.435       .  S
O175        C710   1.288       .  A
O175       Zr210   2.425       .  S
C176        C366   1.485       .  S
C176        O709   1.288   1_554  A
O177        C179   1.288       .  A
O177       Zr720   2.440   1_455  S
O178        C713   1.286       .  A
O178       Zr209   2.417       .  S
C179        C456   1.483       .  S
C179        O712   1.286   1_554  A
O180        C182   1.289       .  A
O180       Zr183   2.448       .  S
O181        C182   1.285       .  A
O181       Zr210   2.416       .  S
C182        C349   1.471       .  S
Zr183       O184   2.434       .  S
Zr183       O185   2.435       .  S
Zr183       O189   2.373   1_655  S
Zr183       O190   2.368       .  S
Zr183       O213   2.373       .  S
Zr183       O215   2.376   1_655  S
O184        H227   0.990       .  S
O185        H226   0.990   1_655  S
O185        H230   0.990       .  S
Zr186       O708   2.435       .  S
Zr186       O711   2.440   1_655  S
Zr186       O187   2.435       .  S
Zr186       O722   2.435       .  S
Zr186       O190   2.371       .  S
Zr186       O189   2.369   1_655  S
Zr186       O748   2.369   1_655  S
Zr186       O750   2.373       .  S
O187        H228   0.990       .  S
O187        H765   0.990       .  S
O188       Zr720   2.435       .  S
O188        H221   0.990   1_655  S
O189       Zr209   2.381       .  S
O190       Zr210   2.383       .  S
O190        H217   0.966       .  S
O191        C193   1.286       .  A
O191       Zr203   2.439       .  S
O192        C193   1.286       .  A
O192       Zr210   2.428       .  S
C193        C409   1.465       .  S
O194        C196   1.288       .  A
O194       Zr740   2.439   1_455  S
O195        C730   1.288       .  A
O195       Zr209   2.430       .  S
C196        C449   1.490       .  S
C196        O729   1.288   1_554  A
O197        C199   1.288       .  A
O197       Zr740   2.446       .  S
O198        C733   1.284       .  A
O198       Zr210   2.417       .  S
C199        C386   1.464       .  S
C199        O732   1.284   1_554  A
O200        C202   1.287       .  A
O200       Zr203   2.439   1_455  S
O201        C202   1.286       .  A
O201       Zr209   2.425       .  S
C202        C426   1.467       .  S
Zr203       O204   2.435       .  S
Zr203       O205   2.434       .  S
Zr203       O211   2.371       .  S
Zr203       O212   2.372   1_655  S
Zr203       O215   2.371   1_655  S
Zr203       O213   2.374       .  S
O204        H224   0.990       .  S
O204        H229   0.990       .  S
O205        H225   0.990       .  S
Zr206       O728   2.439   1_655  S
Zr206       O731   2.446       .  S
Zr206       O207   2.433       .  S
Zr206       O742   2.435       .  S
Zr206       O212   2.374   1_655  S
Zr206       O211   2.367       .  S
Zr206       O750   2.370       .  S
Zr206       O748   2.369   1_655  S
O207        H223   0.990       .  S
O208       Zr740   2.435       .  S
O208        H222   0.990       .  S
O208        H232   0.990       .  S
Zr209       O212   2.379       .  S
Zr209       O215   2.384       .  S
Zr209       O748   2.383       .  S
Zr210       O211   2.382       .  S
Zr210       O213   2.380       .  S
Zr210       O750   2.382       .  S
O211        H219   0.966       .  S
O214       Zr720   2.369   1_455  S
O214       Zr740   2.369   1_455  S
O214       Zr743   2.383   1_554  S
O214        H218   0.966       .  S
O215        H220   0.966       .  S
O216       Zr720   2.373       .  S
O216       Zr740   2.370       .  S
O216       Zr744   2.382   1_554  S
H231        O721   0.990       .  S
O233        C235   1.287       .  A
O233       Zr245   2.438       .  S
O234        C235   1.288       .  A
O234       Zr271   2.426       .  S
C235        C506   1.486       .  S
O236        C238   1.287       .  A
O236       Zr782   2.438   1_545  S
O237        C772   1.287       .  A
O237       Zr272   2.430       .  S
C238        C379   1.465       .  S
C238        O771   1.287   1_554  A
O239        C241   1.291       .  A
O239       Zr782   2.453       .  S
O240        C775   1.284       .  A
O240       Zr271   2.407       .  S
C241        C526   1.487       .  S
C241        O774   1.284   1_554  A
O242        C244   1.288       .  A
O242       Zr245   2.444   1_545  S
O243        C244   1.285       .  A
O243       Zr272   2.420       .  S
C244        C399   1.466       .  S
Zr245       O246   2.434       .  S
Zr245       O247   2.435       .  S
Zr245       O251   2.372       .  S
Zr245       O252   2.367   1_565  S
Zr245       O275   2.373   1_565  S
Zr245       O277   2.374       .  S
O246        H289   0.990       .  S
O247        H288   0.990       .  S
O247        H292   0.990       .  S
Zr248       O770   2.438   1_565  S
Zr248       O773   2.453       .  S
Zr248       O249   2.435       .  S
Zr248       O784   2.436       .  S
Zr248       O252   2.375   1_565  S
Zr248       O251   2.368       .  S
Zr248       O810   2.369       .  S
Zr248       O812   2.377   1_565  S
O249        H290   0.990   1_565  S
O249        H827   0.990   1_565  S
O250       Zr782   2.436       .  S
O250        H283   0.990       .  S
O251       Zr271   2.378       .  S
O252       Zr272   2.387       .  S
O252        H279   0.966       .  S
O253        C255   1.286       .  A
O253       Zr265   2.437   1_545  S
O254        C255   1.287       .  A
O254       Zr272   2.433       .  S
C255        C329   1.466       .  S
O256        C258   1.286       .  A
O256       Zr802   2.432       .  S
O257        C792   1.288       .  A
O257       Zr271   2.429       .  S
C258        C469   1.487       .  S
C258        O791   1.288   1_554  A
O259        C261   1.287       .  A
O259       Zr802   2.441   1_545  S
O260        C795   1.285       .  A
O260       Zr272   2.422       .  S
C261        C309   1.467       .  S
C261        O794   1.285   1_554  A
O262        C264   1.290       .  A
O262       Zr265   2.449       .  S
O263        C264   1.284       .  A
O263       Zr271   2.412       .  S
C264        C486   1.485       .  S
Zr265       O266   2.435       .  S
Zr265       O267   2.434       .  S
Zr265       O273   2.376   1_565  S
Zr265       O274   2.369       .  S
Zr265       O277   2.367       .  S
Zr265       O275   2.377   1_565  S
O266        H286   0.990   1_565  S
O266        H291   0.990   1_565  S
O267        H287   0.990   1_565  S
Zr268       O790   2.432       .  S
Zr268       O793   2.441   1_565  S
Zr268       O269   2.433   1_565  S
Zr268       O804   2.435       .  S
Zr268       O274   2.374       .  S
Zr268       O273   2.368   1_565  S
Zr268       O812   2.367   1_565  S
Zr268       O810   2.370       .  S
O269        H285   0.990   1_545  S
O270       Zr802   2.435       .  S
O270        H284   0.990   1_565  S
O270        H294   0.990   1_565  S
Zr271       O274   2.375       .  S
Zr271       O277   2.381       .  S
Zr271       O810   2.381       .  S
Zr272       O273   2.382       .  S
Zr272       O275   2.381       .  S
Zr272       O812   2.384       .  S
O273        H281   0.966       .  S
O276       Zr782   2.369       .  S
O276       Zr802   2.370       .  S
O276       Zr805   2.381   1_554  S
O276        H280   0.966       .  S
O277        H282   0.966       .  S
O278       Zr782   2.377   1_545  S
O278       Zr802   2.367   1_545  S
O278       Zr806   2.384   1_554  S
H293        O783   0.990   1_545  S
C295        C296   1.410       .  A
C295        C300   1.398       .  A
C295        H302   1.082       .  S
C296        C297   1.415       .  A
C297        C298   1.398       .  A
C297        F304   1.357       .  S
C298        C299   1.399       .  A
C298        H303   1.084       .  S
C299        C300   1.401       .  A
C300        F835   1.357   1_554  S
F301        C834   1.357       .  S
C305        C306   1.410       .  A
C305        C310   1.397       .  A
C305        H312   1.082       .  S
C306        C307   1.416       .  A
C307        C308   1.398       .  A
C307        F314   1.357       .  S
C308        C309   1.398       .  A
C308        H313   1.084       .  S
C309        C310   1.400       .  A
C310        F845   1.356   1_554  S
F311        C844   1.356       .  S
C315        C316   1.404       .  A
C315        C320   1.398       .  A
C315        H322   1.083       .  S
C316        C317   1.409       .  A
C317        C318   1.399       .  A
C317        F324   1.358       .  S
C318        C319   1.400       .  A
C318        H323   1.083       .  S
C319        C320   1.403       .  A
C320        F321   1.357       .  S
C325        C326   1.410       .  A
C325        C330   1.398       .  A
C325        H332   1.083       .  S
C326        C327   1.409       .  A
C327        C328   1.399       .  A
C327        F334   1.357       .  S
C328        C329   1.400       .  A
C328        H333   1.082       .  S
C329        C330   1.400       .  A
C330        F331   1.358       .  S
C335        C336   1.409       .  A
C335        C340   1.398       .  A
C335        H342   1.083       .  S
C336        C337   1.412       .  A
C337        C338   1.398       .  A
C337        F344   1.358       .  S
C338        C339   1.403       .  A
C338        H343   1.083       .  S
C339        C340   1.404       .  A
C340        F341   1.358       .  S
C345        C346   1.403       .  A
C345        C350   1.400       .  A
C345        H352   1.083       .  S
C346        C347   1.403       .  A
C347        C348   1.397       .  A
C347        F354   1.357       .  S
C348        C349   1.403       .  A
C348        H353   1.083       .  S
C349        C350   1.406       .  A
C350        F351   1.358       .  S
C355        C356   1.407       .  A
C355        C360   1.398       .  A
C355        H896   1.083   1_554  S
C356        C357   1.412       .  A
C357        C358   1.396       .  A
C357        F364   1.358       .  S
C358        C359   1.403       .  A
C358        H363   1.083       .  S
C359        C360   1.407       .  A
C360        F361   1.357       .  S
H362        C889   1.083       .  S
C365        C366   1.406       .  A
C365        C370   1.397       .  A
C365        H906   1.083   1_554  S
C366        C367   1.411       .  A
C367        C368   1.396       .  A
C367        F374   1.358       .  S
C368        C369   1.404       .  A
C368        H373   1.083       .  S
C369        C370   1.409       .  A
C370        F371   1.357       .  S
H372        C899   1.083       .  S
C375        C376   1.410       .  A
C375        C380   1.396       .  A
C375        H382   1.083       .  S
C376        C377   1.412       .  A
C377        C378   1.400       .  A
C377        F384   1.357       .  S
C378        C379   1.400       .  A
C378        H917   1.084   1_554  S
C379        C380   1.400       .  A
C380        F381   1.358       .  S
H383        C912   1.084       .  S
C385        C386   1.400       .  A
C385        C390   1.398       .  A
C385        H392   1.084       .  S
C386        C387   1.401       .  A
C387        C388   1.397       .  A
C387        F928   1.358   1_554  S
C388        C389   1.407       .  A
C388        H393   1.083       .  S
C389        C390   1.410       .  A
C390        F391   1.357       .  S
F394        C921   1.358       .  S
C395        C396   1.404       .  A
C395        C400   1.399       .  A
C395        H402   1.083       .  S
C396        C397   1.407       .  A
C397        C398   1.398       .  A
C397        F404   1.357       .  S
C398        C399   1.401       .  A
C398        H403   1.084       .  S
C399        C400   1.404       .  A
C400        F401   1.358       .  S
C405        C406   1.406       .  A
C405        C410   1.397       .  A
C405        H412   1.083       .  S
C406        C407   1.406       .  A
C407        C408   1.400       .  A
C407        F414   1.357       .  S
C408        C409   1.403       .  A
C408        H413   1.084       .  S
C409        C410   1.401       .  A
C410        F411   1.357       .  S
C415        C416   1.411       .  A
C415        C420   1.399       .  A
C415        H422   1.082       .  S
C416        C417   1.415       .  A
C417        C418   1.399       .  A
C417        F424   1.357       .  S
C418        C419   1.398       .  A
C418        H423   1.083       .  S
C419        C420   1.401       .  A
C420        F421   1.358       .  S
C425        C426   1.400       .  A
C425        C430   1.400       .  A
C425        H432   1.084       .  S
C426        C427   1.400       .  A
C427        C428   1.397       .  A
C427        F434   1.358       .  S
C428        C429   1.411       .  A
C428        H433   1.082       .  S
C429        C430   1.415       .  A
C430        F431   1.357       .  S
C435        C436   1.400       .  A
C435        C440   1.401       .  A
C435        H976   1.083   1_554  S
C436        C437   1.399       .  A
C437        C438   1.396       .  A
C437        F444   1.358       .  S
C438        C439   1.411       .  A
C438        H443   1.082       .  S
C439        C440   1.414       .  A
C440        F975   1.357       .  S
F441        C974   1.357       .  S
H442        C969   1.083       .  S
C445        C446   1.404       .  A
C445        C450   1.396       .  A
C445        H452   1.083       .  S
C446        C447   1.408       .  A
C447        C448   1.401       .  A
C447        F454   1.357       .  S
C448        C449   1.408       .  A
C448        H987   1.083   1_554  S
C449        C450   1.412       .  A
C450        F451   1.358       .  S
H453        C982   1.083       .  S
C455        C456   1.406       .  A
C455        C460   1.397       .  A
C455        H996   1.083   1_554  S
C456        C457   1.409       .  A
C457        C458   1.396       .  A
C457        F464   1.358       .  S
C458        C459   1.405       .  A
C458        H463   1.083       .  S
C459        C460   1.408       .  A
C460        F995   1.357       .  S
F461        C994   1.357       .  S
H462        C989   1.083       .  S
C465        C466   1.403       .  A
C465        C470   1.398       .  A
C465        H472   1.083       .  S
C466        C467   1.408       .  A
C467        C468   1.397       .  A
C467        F474   1.358       .  S
C468        C469   1.406       .  A
C468       H1007   1.083   1_554  S
C469        C470   1.413       .  A
C470        F471   1.358       .  S
H473       C1002   1.083       .  S
C475        C476   1.409       .  A
C475        C480   1.396       .  A
C475        H482   1.083       .  S
C476        C477   1.412       .  A
C477        C478   1.402       .  A
C477        F484   1.357       .  S
C478        C479   1.401       .  A
C478        H483   1.083       .  S
C479        C480   1.399       .  A
C480        F481   1.358       .  S
C485        C486   1.404       .  A
C485        C490   1.396       .  A
C485        H492   1.083       .  S
C486        C487   1.411       .  A
C487        C488   1.399       .  A
C487        F494   1.358       .  S
C488        C489   1.406       .  A
C488        H493   1.083       .  S
C489        C490   1.411       .  A
C490        F491   1.358       .  S
C495        C496   1.406       .  A
C495        C500   1.396       .  A
C495        H502   1.083       .  S
C496        C497   1.409       .  A
C497        C498   1.397       .  A
C497        F504   1.358       .  S
C498        C499   1.406       .  A
C498        H503   1.083       .  S
C499        C500   1.409       .  A
C500        F501   1.358       .  S
C505        C506   1.406       .  A
C505        C510   1.398       .  A
C505        H512   1.083       .  S
C506        C507   1.411       .  A
C507        C508   1.397       .  A
C507        F514   1.358       .  S
C508        C509   1.405       .  A
C508        H513   1.083       .  S
C509        C510   1.409       .  A
C510        F511   1.357       .  S
C515        C516   1.404       .  A
C515        C520   1.397       .  A
C515        H522   1.083       .  S
C516        C517   1.408       .  A
C517        C518   1.398       .  A
C517        F524   1.357       .  S
C518        C519   1.407       .  A
C518       H1057   1.083   1_554  S
C519        C520   1.411       .  A
C520        F521   1.358       .  S
H523       C1052   1.083       .  S
C525        C526   1.407       .  A
C525        C530   1.399       .  A
C525        H532   1.083       .  S
C526        C527   1.413       .  A
C527        C528   1.396       .  A
C527       F1068   1.358   1_554  S
C528        C529   1.402       .  A
C528        H533   1.083       .  S
C529        C530   1.407       .  A
C530        F531   1.358       .  S
F534       C1061   1.358       .  S
C535        C536   1.406       .  A
C535        C540   1.399       .  A
C535       C1050   1.488       .  S
C536        C537   1.417       .  A
C536        H541   1.075       .  S
C537        C538   1.416       .  A
C537        C546   1.521       .  S
C538        C539   1.404       .  A
C538        H542   1.075       .  S
C539        C540   1.399       .  A
C539       C1063   1.483       .  S
C540        H543   1.084       .  S
C544        C545   1.405       .  A
C544        C549   1.399       .  A
C544       C1033   1.488       .  S
C545        C546   1.415       .  A
C545        H550   1.075       .  S
C546        C547   1.417       .  A
C547        C548   1.407       .  A
C547        H551   1.074       .  S
C548        C549   1.399       .  A
C548       C1043   1.489       .  S
C549        H552   1.083       .  S
C553        C554   1.405       .  A
C553        C558   1.405       .  A
C553       C1023   1.491       .  S
C554        C555   1.410       .  A
C554        H559   1.078       .  S
C555        C556   1.412       .  A
C555        C564   1.510       .  S
C556        C557   1.407       .  A
C556        H560   1.079       .  S
C557        C558   1.404       .  A
C557       C1010   1.493       .  S
C558        H561   1.081       .  S
C562        C563   1.405       .  A
C562        C567   1.400       .  A
C562       C1000   1.486       .  S
C563        C564   1.414       .  A
C563        H568   1.078       .  S
C564        C565   1.412       .  A
C565        C566   1.405       .  A
C565        H569   1.079       .  S
C566        C567   1.400       .  A
C566        C993   1.486       .  S
C567        H570   1.083       .  S
C571        C572   1.402       .  A
C571        C576   1.405       .  A
C571        C980   1.490       .  S
C572        C573   1.406       .  A
C572        H577   1.080       .  S
C573        C574   1.409       .  A
C573        C973   1.497       .  S
C574        C575   1.412       .  A
C574        H578   1.078       .  S
C575        C576   1.412       .  A
C575        C582   1.513       .  S
C576        H579   1.079       .  S
C580        C581   1.408       .  A
C580        C585   1.405       .  A
C580        C963   1.497       .  S
C581        C582   1.411       .  A
C581        H586   1.079       .  S
C582        C583   1.413       .  A
C583        C584   1.408       .  A
C583        H587   1.075       .  S
C584        C585   1.404       .  A
C584        C950   1.497       .  S
C585        H588   1.081       .  S
C589        C590   1.404       .  A
C589        C594   1.399       .  A
C589        C940   1.481       .  S
C590        C591   1.415       .  A
C590        H595   1.077       .  S
C591        C592   1.415       .  A
C591        C600   1.514       .  S
C592        C593   1.403       .  A
C592        H596   1.078       .  S
C593        C594   1.398       .  A
C593        C930   1.478       .  S
C594        H597   1.084       .  S
C598        C599   1.403       .  A
C598        C603   1.400       .  A
C598        C923   1.484       .  S
C599        C600   1.413       .  A
C599        H604   1.076       .  S
C600        C601   1.414       .  A
C601        C602   1.408       .  A
C601        H605   1.078       .  S
C602        C603   1.402       .  A
C602        C910   1.492       .  S
C603        H606   1.082       .  S
C607        C608   1.398       .  A
C607        C612   1.405       .  A
C607        C893   1.484       .  S
C608        C609   1.398       .  A
C608        H613   1.083       .  S
C609        C610   1.406       .  A
C609        C903   1.487       .  S
C610        C611   1.416       .  A
C610        H614   1.074       .  S
C611        C612   1.416       .  A
C611        C618   1.520       .  S
C612        H615   1.076       .  S
C616        C617   1.405       .  A
C616        C621   1.399       .  A
C616        C873   1.481       .  S
C617        C618   1.417       .  A
C617        H622   1.076       .  S
C618        C619   1.417       .  A
C619        C620   1.401       .  A
C619        H623   1.076       .  S
C620        C621   1.395       .  A
C620        C880   1.473       .  S
C621        H624   1.084       .  S
C625        C626   1.406       .  A
C625        C630   1.402       .  A
C625        C860   1.490       .  S
C626        C627   1.416       .  A
C626        H631   1.075       .  S
C627        C628   1.415       .  A
C627        C636   1.517       .  S
C628        C629   1.402       .  A
C628        H632   1.076       .  S
C629        C630   1.399       .  A
C629        C850   1.482       .  S
C630        H633   1.083       .  S
C634        C635   1.406       .  A
C634        C639   1.405       .  A
C634        C840   1.497       .  S
C635        C636   1.412       .  A
C635        H640   1.072       .  S
C636        C637   1.412       .  A
C637        C638   1.406       .  A
C637        H641   1.076       .  S
C638        C639   1.405       .  A
C638        C830   1.496       .  S
C639        H642   1.082       .  S
O643        C645   1.287       .  A
O644       Zr681   2.425       .  S
C645       C1053   1.487       .  S
O646        C648   1.289       .  A
O646       Zr658   2.446       .  S
O647        C648   1.286       .  A
O647       Zr682   2.419       .  S
C648        C870   1.488       .  S
O649        C651   1.288       .  A
O649       Zr658   2.439       .  S
O650        C651   1.286       .  A
O650       Zr681   2.421       .  S
C651       C1030   1.483       .  S
O652        C654   1.286       .  A
O653       Zr682   2.429       .  S
C654        C890   1.486       .  S
Zr655       O656   2.434       .  S
Zr655       O661   2.367   1_554  S
Zr655       O662   2.370   1_554  S
O656        H699   0.990   1_554  S
O657        H698   0.990       .  S
O657        H702   0.990       .  S
Zr658       O659   2.435       .  S
Zr658       O660   2.436       .  S
Zr658       O662   2.367       .  S
Zr658       O661   2.373       .  S
Zr658       O686   2.371       .  S
Zr658       O688   2.372       .  S
O659        H700   0.990       .  S
O659        H703   0.990       .  S
O660        H693   0.990       .  S
O661       Zr681   2.379       .  S
O662       Zr682   2.383       .  S
O662        H689   0.966       .  S
O663        C665   1.288       .  A
O664       Zr682   2.423       .  S
C665        C833   1.468       .  S
O666        C668   1.289       .  A
O666       Zr678   2.449       .  S
O667        C668   1.285       .  A
O667       Zr681   2.419       .  S
C668        C953   1.467       .  S
O669        C671   1.287       .  A
O669       Zr678   2.442       .  S
O670        C671   1.286       .  A
O670       Zr682   2.426       .  S
C671        C853   1.465       .  S
O672        C674   1.286       .  A
O673       Zr681   2.427       .  S
C674        C970   1.466       .  S
Zr675       O676   2.435       .  S
Zr675       O683   2.370   1_554  S
Zr675       O684   2.375   1_554  S
O676        H696   0.990   1_554  S
O677        H697   0.990       .  S
Zr678       O679   2.433       .  S
Zr678       O680   2.435       .  S
Zr678       O684   2.373       .  S
Zr678       O683   2.375       .  S
Zr678       O688   2.375       .  S
Zr678       O686   2.369       .  S
O679        H695   0.990       .  S
O680        H694   0.990       .  S
O680        H704   0.990       .  S
Zr681       O684   2.378       .  S
Zr681       O686   2.384       .  S
Zr682       O683   2.383       .  S
Zr682       O688   2.382       .  S
O683        H691   0.966       .  S
O686        H690   0.966       .  S
O687        H692   0.966       .  S
O705        C707   1.287       .  A
O705       Zr717   2.440   1_455  S
O706        C707   1.287       .  A
O706       Zr743   2.429       .  S
C707       C1013   1.466       .  S
O708        C710   1.287       .  A
O709       Zr744   2.425       .  S
C710        C900   1.485       .  S
O711        C713   1.288       .  A
O712       Zr743   2.417       .  S
C713        C990   1.483       .  S
O714        C716   1.289       .  A
O714       Zr717   2.448       .  S
O715        C716   1.285       .  A
O715       Zr744   2.416       .  S
C716        C883   1.471       .  S
Zr717       O718   2.434       .  S
Zr717       O719   2.435       .  S
Zr717       O723   2.373   1_655  S
Zr717       O724   2.368       .  S
Zr717       O747   2.373       .  S
Zr717       O749   2.376   1_655  S
O718        H761   0.990       .  S
O719        H760   0.990   1_655  S
O719        H764   0.990       .  S
Zr720       O721   2.435       .  S
Zr720       O724   2.371   1_554  S
Zr720       O723   2.369   1_654  S
O721        H762   0.990   1_554  S
O722        H755   0.990   1_655  S
O723       Zr743   2.381       .  S
O724       Zr744   2.383       .  S
O724        H751   0.966       .  S
O725        C727   1.286       .  A
O725       Zr737   2.439       .  S
O726        C727   1.286       .  A
O726       Zr744   2.428       .  S
C727        C943   1.465       .  S
O728        C730   1.288       .  A
O729       Zr743   2.430       .  S
C730        C983   1.490       .  S
O731        C733   1.288       .  A
O732       Zr744   2.417       .  S
C733        C920   1.464       .  S
O734        C736   1.287       .  A
O734       Zr737   2.439   1_455  S
O735        C736   1.286       .  A
O735       Zr743   2.425       .  S
C736        C960   1.467       .  S
Zr737       O738   2.435       .  S
Zr737       O739   2.434       .  S
Zr737       O745   2.371       .  S
Zr737       O746   2.372   1_655  S
Zr737       O749   2.371   1_655  S
Zr737       O747   2.374       .  S
O738        H758   0.990       .  S
O738        H763   0.990       .  S
O739        H759   0.990       .  S
Zr740       O741   2.433       .  S
Zr740       O746   2.374   1_654  S
Zr740       O745   2.367   1_554  S
O741        H757   0.990   1_554  S
O742        H756   0.990       .  S
O742        H766   0.990       .  S
Zr743       O746   2.379       .  S
Zr743       O749   2.384       .  S
Zr744       O745   2.382       .  S
Zr744       O747   2.380       .  S
O745        H753   0.966       .  S
O748        H752   0.966       .  S
O749        H754   0.966       .  S
O767        C769   1.287       .  A
O767       Zr779   2.438       .  S
O768        C769   1.288       .  A
O768       Zr805   2.426       .  S
C769       C1040   1.486       .  S
O770        C772   1.287       .  A
O771       Zr806   2.430       .  S
C772        C913   1.465       .  S
O773        C775   1.291       .  A
O774       Zr805   2.407       .  S
C775       C1060   1.487       .  S
O776        C778   1.288       .  A
O776       Zr779   2.444   1_545  S
O777        C778   1.285       .  A
O777       Zr806   2.420       .  S
C778        C933   1.466       .  S
Zr779       O780   2.434       .  S
Zr779       O781   2.435       .  S
Zr779       O785   2.372       .  S
Zr779       O786   2.367   1_565  S
Zr779       O809   2.373   1_565  S
Zr779       O811   2.374       .  S
O780        H823   0.990       .  S
O781        H822   0.990       .  S
O781        H826   0.990       .  S
Zr782       O783   2.435       .  S
Zr782       O786   2.375   1_564  S
Zr782       O785   2.368   1_554  S
O783        H824   0.990   1_564  S
O784        H817   0.990       .  S
O785       Zr805   2.378       .  S
O786       Zr806   2.387       .  S
O786        H813   0.966       .  S
O787        C789   1.286       .  A
O787       Zr799   2.437   1_545  S
O788        C789   1.287       .  A
O788       Zr806   2.433       .  S
C789        C863   1.466       .  S
O790        C792   1.286       .  A
O791       Zr805   2.429       .  S
C792       C1003   1.487       .  S
O793        C795   1.287       .  A
O794       Zr806   2.422       .  S
C795        C843   1.467       .  S
O796        C798   1.290       .  A
O796       Zr799   2.449       .  S
O797        C798   1.284       .  A
O797       Zr805   2.412       .  S
C798       C1020   1.485       .  S
Zr799       O800   2.435       .  S
Zr799       O801   2.434       .  S
Zr799       O807   2.376   1_565  S
Zr799       O808   2.369       .  S
Zr799       O811   2.367       .  S
Zr799       O809   2.377   1_565  S
O800        H820   0.990   1_565  S
O800        H825   0.990   1_565  S
O801        H821   0.990   1_565  S
Zr802       O803   2.433   1_565  S
Zr802       O808   2.374   1_554  S
Zr802       O807   2.368   1_564  S
O803        H819   0.990   1_544  S
O804        H818   0.990   1_565  S
O804        H828   0.990   1_565  S
Zr805       O808   2.375       .  S
Zr805       O811   2.381       .  S
Zr806       O807   2.382       .  S
Zr806       O809   2.381       .  S
O807        H815   0.966       .  S
O810        H814   0.966       .  S
O811        H816   0.966       .  S
C829        C830   1.410       .  A
C829        C834   1.398       .  A
C829        H836   1.082       .  S
C830        C831   1.415       .  A
C831        C832   1.398       .  A
C831        F838   1.357       .  S
C832        C833   1.399       .  A
C832        H837   1.084       .  S
C833        C834   1.401       .  A
C839        C840   1.410       .  A
C839        C844   1.397       .  A
C839        H846   1.082       .  S
C840        C841   1.416       .  A
C841        C842   1.398       .  A
C841        F848   1.357       .  S
C842        C843   1.398       .  A
C842        H847   1.084       .  S
C843        C844   1.400       .  A
C849        C850   1.404       .  A
C849        C854   1.398       .  A
C849        H856   1.083       .  S
C850        C851   1.409       .  A
C851        C852   1.399       .  A
C851        F858   1.358       .  S
C852        C853   1.400       .  A
C852        H857   1.083       .  S
C853        C854   1.403       .  A
C854        F855   1.357       .  S
C859        C860   1.410       .  A
C859        C864   1.398       .  A
C859        H866   1.083       .  S
C860        C861   1.409       .  A
C861        C862   1.399       .  A
C861        F868   1.357       .  S
C862        C863   1.400       .  A
C862        H867   1.082       .  S
C863        C864   1.400       .  A
C864        F865   1.358       .  S
C869        C870   1.409       .  A
C869        C874   1.398       .  A
C869        H876   1.083       .  S
C870        C871   1.412       .  A
C871        C872   1.398       .  A
C871        F878   1.358       .  S
C872        C873   1.403       .  A
C872        H877   1.083       .  S
C873        C874   1.404       .  A
C874        F875   1.358       .  S
C879        C880   1.403       .  A
C879        C884   1.400       .  A
C879        H886   1.083       .  S
C880        C881   1.403       .  A
C881        C882   1.397       .  A
C881        F888   1.357       .  S
C882        C883   1.403       .  A
C882        H887   1.083       .  S
C883        C884   1.406       .  A
C884        F885   1.358       .  S
C889        C890   1.407       .  A
C889        C894   1.398       .  A
C890        C891   1.412       .  A
C891        C892   1.396       .  A
C891        F898   1.358       .  S
C892        C893   1.403       .  A
C892        H897   1.083       .  S
C893        C894   1.407       .  A
C894        F895   1.357       .  S
C899        C900   1.406       .  A
C899        C904   1.397       .  A
C900        C901   1.411       .  A
C901        C902   1.396       .  A
C901        F908   1.358       .  S
C902        C903   1.404       .  A
C902        H907   1.083       .  S
C903        C904   1.409       .  A
C904        F905   1.357       .  S
C909        C910   1.410       .  A
C909        C914   1.396       .  A
C909        H916   1.083       .  S
C910        C911   1.412       .  A
C911        C912   1.400       .  A
C911        F918   1.357       .  S
C912        C913   1.400       .  A
C913        C914   1.400       .  A
C914        F915   1.358       .  S
C919        C920   1.400       .  A
C919        C924   1.398       .  A
C919        H926   1.084       .  S
C920        C921   1.401       .  A
C921        C922   1.397       .  A
C922        C923   1.407       .  A
C922        H927   1.083       .  S
C923        C924   1.410       .  A
C924        F925   1.357       .  S
C929        C930   1.404       .  A
C929        C934   1.399       .  A
C929        H936   1.083       .  S
C930        C931   1.407       .  A
C931        C932   1.398       .  A
C931        F938   1.357       .  S
C932        C933   1.401       .  A
C932        H937   1.084       .  S
C933        C934   1.404       .  A
C934        F935   1.358       .  S
C939        C940   1.406       .  A
C939        C944   1.397       .  A
C939        H946   1.083       .  S
C940        C941   1.406       .  A
C941        C942   1.400       .  A
C941        F948   1.357       .  S
C942        C943   1.403       .  A
C942        H947   1.084       .  S
C943        C944   1.401       .  A
C944        F945   1.357       .  S
C949        C950   1.411       .  A
C949        C954   1.399       .  A
C949        H956   1.082       .  S
C950        C951   1.415       .  A
C951        C952   1.399       .  A
C951        F958   1.357       .  S
C952        C953   1.398       .  A
C952        H957   1.083       .  S
C953        C954   1.401       .  A
C954        F955   1.358       .  S
C959        C960   1.400       .  A
C959        C964   1.400       .  A
C959        H966   1.084       .  S
C960        C961   1.400       .  A
C961        C962   1.397       .  A
C961        F968   1.358       .  S
C962        C963   1.411       .  A
C962        H967   1.082       .  S
C963        C964   1.415       .  A
C964        F965   1.357       .  S
C969        C970   1.400       .  A
C969        C974   1.401       .  A
C970        C971   1.399       .  A
C971        C972   1.396       .  A
C971        F978   1.358       .  S
C972        C973   1.411       .  A
C972        H977   1.082       .  S
C973        C974   1.414       .  A
C979        C980   1.404       .  A
C979        C984   1.396       .  A
C979        H986   1.083       .  S
C980        C981   1.408       .  A
C981        C982   1.401       .  A
C981        F988   1.357       .  S
C982        C983   1.408       .  A
C983        C984   1.412       .  A
C984        F985   1.358       .  S
C989        C990   1.406       .  A
C989        C994   1.397       .  A
C990        C991   1.409       .  A
C991        C992   1.396       .  A
C991        F998   1.358       .  S
C992        C993   1.405       .  A
C992        H997   1.083       .  S
C993        C994   1.408       .  A
C999       C1000   1.403       .  A
C999       C1004   1.398       .  A
C999       H1006   1.083       .  S
C1000      C1001   1.408       .  A
C1001      C1002   1.397       .  A
C1001      F1008   1.358       .  S
C1002      C1003   1.406       .  A
C1003      C1004   1.413       .  A
C1004      F1005   1.358       .  S
C1009      C1010   1.409       .  A
C1009      C1014   1.396       .  A
C1009      H1016   1.083       .  S
C1010      C1011   1.412       .  A
C1011      C1012   1.402       .  A
C1011      F1018   1.357       .  S
C1012      C1013   1.401       .  A
C1012      H1017   1.083       .  S
C1013      C1014   1.399       .  A
C1014      F1015   1.358       .  S
C1019      C1020   1.404       .  A
C1019      C1024   1.396       .  A
C1019      H1026   1.083       .  S
C1020      C1021   1.411       .  A
C1021      C1022   1.399       .  A
C1021      F1028   1.358       .  S
C1022      C1023   1.406       .  A
C1022      H1027   1.083       .  S
C1023      C1024   1.411       .  A
C1024      F1025   1.358       .  S
C1029      C1030   1.406       .  A
C1029      C1034   1.396       .  A
C1029      H1036   1.083       .  S
C1030      C1031   1.409       .  A
C1031      C1032   1.397       .  A
C1031      F1038   1.358       .  S
C1032      C1033   1.406       .  A
C1032      H1037   1.083       .  S
C1033      C1034   1.409       .  A
C1034      F1035   1.358       .  S
C1039      C1040   1.406       .  A
C1039      C1044   1.398       .  A
C1039      H1046   1.083       .  S
C1040      C1041   1.411       .  A
C1041      C1042   1.397       .  A
C1041      F1048   1.358       .  S
C1042      C1043   1.405       .  A
C1042      H1047   1.083       .  S
C1043      C1044   1.409       .  A
C1044      F1045   1.357       .  S
C1049      C1050   1.404       .  A
C1049      C1054   1.397       .  A
C1049      H1056   1.083       .  S
C1050      C1051   1.408       .  A
C1051      C1052   1.398       .  A
C1051      F1058   1.357       .  S
C1052      C1053   1.407       .  A
C1053      C1054   1.411       .  A
C1054      F1055   1.358       .  S
C1059      C1060   1.407       .  A
C1059      C1064   1.399       .  A
C1059      H1066   1.083       .  S
C1060      C1061   1.413       .  A
C1061      C1062   1.396       .  A
C1062      C1063   1.402       .  A
C1062      H1067   1.083       .  S
C1063      C1064   1.407       .  A
C1064      F1065   1.358       .  S
