geometry optimzed in LAMMPS
_audit_creation_date              2020-12-01 
_audit_creation_method            'lammps2cif' 
_symmetry_space_group_name_H-M    'P1' 
_symmetry_Int_Tables_number       1 
_symmetry_cell_setting            triclinic 
loop_ 
_symmetry_equiv_pos_as_xyz 
  x,y,z 
_cell_length_a                    41.92825824 
_cell_length_b                    41.7006246297628 
_cell_length_c                    32.9384692830169 
_cell_angle_alpha                 90.41803311914032 
_cell_angle_beta                  89.55401239331374 
_cell_angle_gamma                 131.00622283936022 
loop_ 
_atom_site_label 
_atom_site_type_symbol 
_atom_site_fract_x 
_atom_site_fract_y 
_atom_site_fract_z 
_atom_site_charge 
C1          C  0.35178973  0.14428927  0.90042278     0.87100
C2          C  0.37699075  0.19164811  0.90993391    -0.53100
C3          C  0.35905446  0.20710882  0.89550061     0.10100
C4          C  0.31795369  0.17438317  0.87153514     0.21000
C5          C  0.30688089  0.12141661  0.91603513    -0.53800
C6          C  0.28879951  0.13675442  0.90102730     0.10200
C7          C  0.34832095  0.14257923  0.85388635    -0.53400
C8          C  0.32998601  0.15742419  0.83870861     0.10700
H9          H  0.40657797  0.21192227  0.92634510     0.15200
H10         H  0.30379199  0.18720345  0.85902756     0.01000
H11         H  0.29115925  0.09568533  0.93787458     0.15600
H12         H  0.36048553  0.13177017  0.83414076     0.15300
C13         C  0.35508954  0.14725154  0.60197410     0.87100
C14         C  0.30986791  0.12496074  0.58757308    -0.53100
C15         C  0.29384192  0.14212490  0.60344469     0.10100
C16         C  0.32344763  0.17913165  0.63302929     0.21000
C17         C  0.38063792  0.19425866  0.59238017    -0.53800
C18         C  0.36442658  0.21130039  0.60838800     0.10200
C19         C  0.35044313  0.14394491  0.64843621    -0.53400
C20         C  0.33422492  0.16076864  0.66477688     0.10700
H21         H  0.29088688  0.09717125  0.56816586     0.15200
H22         H  0.30958193  0.19202286  0.64663832     0.01000
H23         H  0.40813425  0.21176117  0.57257164     0.15600
H24         H  0.35858610  0.12881672  0.66697943     0.15300
C25         C  0.11808899  0.37625193  0.10554981     0.87100
C26         C  0.16240320  0.39813541  0.08822666    -0.53100
C27         C  0.17998949  0.38225764  0.10267963     0.10100
C28         C  0.15239002  0.34646487  0.13402738     0.21000
C29         C  0.09241982  0.32885607  0.09734955    -0.53800
C30         C  0.11004028  0.31283758  0.11175967     0.10200
C31         C  0.12560086  0.38170669  0.15175516    -0.53400
C32         C  0.14307906  0.36586734  0.16693613     0.10700
H33         H  0.17947240  0.42480057  0.06746503     0.15200
H34         H  0.16734352  0.33440533  0.14631698     0.01000
H35         H  0.06390453  0.31037153  0.07914308     0.15600
H36         H  0.11865547  0.39768366  0.17100752     0.15300
C37         C  0.12821766  0.38189758  0.40543994     0.87100
C38         C  0.10330657  0.33464817  0.41350250    -0.53100
C39         C  0.12084840  0.31908527  0.39718792     0.10100
C40         C  0.16206137  0.35248125  0.37325879     0.21000
C41         C  0.17339588  0.40450197  0.42026739    -0.53800
C42         C  0.19076865  0.38885014  0.40385968     0.10200
C43         C  0.13357133  0.38656535  0.35895017    -0.53400
C44         C  0.15074772  0.37085955  0.34182102     0.10700
H45         H  0.07513592  0.31564656  0.43245333     0.15200
H46         H  0.17655552  0.34012166  0.35986527     0.01000
H47         H  0.19145813  0.43149579  0.44067470     0.15600
H48         H  0.12425190  0.40090178  0.34091584     0.15300
Zr49       Zr  0.01616579  0.47835805  0.96646819     2.17500
O50         O  0.03139780  0.46472606  0.90010378    -0.50700
O51         O  0.03852737  0.44809003  0.00793703    -0.73900
O52         O  0.09078949  0.02724214  0.95184771    -0.80700
O53         O  0.40077890  0.37599380  0.96639959    -0.82400
O54         O  0.11888594  0.09235679  0.97536184    -0.78000
O55         O  0.46645284  0.40446219  0.94485873    -0.89700
O56         O  0.02697042  0.45393694  0.07386736    -0.75600
O57         O  0.04737432  0.02341305  0.02457117    -0.85100
O58         O  0.46392858  0.44179428  0.02001618    -0.84800
O59         O  0.03138064  0.04188205  0.94623451    -0.71600
O60         O  0.45415692  0.46637932  0.94261417    -0.83700
Zr61       Zr  0.45263718  0.04139942  0.03688354     2.26400
Zr62       Zr  0.06204216  0.08707634  0.00487073     2.06300
Zr63       Zr  0.40388281  0.43144046  0.99699693     2.10000
Zr64       Zr  0.99545163  0.48623683  0.07699743     1.78800
O65         O  0.35128236  0.40008660  0.94345553    -0.92500
O66         O  0.05688772  0.02979664  0.12276282    -0.40300
O67         O  0.43471321  0.47607003  0.05598013    -0.77000
O68         O  0.01253444  0.05179661  0.06005731    -0.95600
O69         O  0.50320508  0.07728319  0.98331631    -0.88900
O70         O  0.42080921  0.99585473  0.97903985    -0.91800
C71         C  0.03951578  0.44262039  0.04610512     1.02000
C72         C  0.42662881  0.37328297  0.94924719     1.14900
C73         C  0.12206741  0.06701653  0.95750918     1.05700
O74         O  0.11959907  0.12556588  0.05369579    -0.93900
O75         O  0.06639443  0.14241861  0.03773914    -0.89700
O76         O  0.00040662  0.11478266  0.05587997    -0.82800
C77         C  0.04055548  0.14565059  0.05382513     1.12300
O78         O  0.48784681  0.02076790  0.85847858    -0.95900
Zr79       Zr  0.47137777  0.03147794  0.92577733     1.88900
O80         O  0.42866313  0.06985770  0.99565815    -0.72600
O81         O  0.09905843  0.14588327  0.95693155    -0.51800
O82         O  0.02044217  0.09730211  0.89044276    -0.96500
O83         O  0.40861685  0.48377736  0.88110541    -0.53700
O84         O  0.43788036  0.06174708  0.92941815    -0.73100
C85         C  0.42552998  0.07304794  0.95746116     0.99300
O86         O  0.43521603  0.05218428  0.10367463    -0.61900
O87         O  0.35722164  0.36978694  0.04084295    -0.56700
O88         O  0.37655358  0.49197683  0.05248054    -0.93400
O89         O  0.34794432  0.42700940  0.02726833    -0.91800
O90         O  0.44637861  0.41946261  0.11227553    -0.92200
O91         O  0.48083639  0.99576473  0.14717871    -0.91000
C92         C  0.34521844  0.45236764  0.04580553     1.18100
H93         H  0.45631749  0.41485845  0.02609675     0.34000
H94         H  0.02404719  0.07008967  0.08370890     0.44900
H95         H  0.39365289  0.48947017  0.97118198     0.38400
H96         H  0.05139517  0.05469515  0.92401180     0.34900
H97         H  0.05387856  0.00905205  0.14080973     0.26700
H98         H  0.12890863  0.16527748  0.96582460     0.32600
H99         H  0.53076051  0.12045697  0.90904620     0.38500
H100        H  0.46338731  0.42017938  0.13356466     0.33000
H101        H  0.33741131  0.34578499  0.02211040     0.31900
H102        H  0.32386888  0.37869337  0.95740399     0.33600
H103        H  0.38542462  0.97818876  0.89873680     0.32500
H104        H  0.95351649  0.99270475  0.14073614     0.36500
H105        H  0.42090350  0.02506526  0.11819001     0.29300
H106        H  0.05320580  0.46255719  0.90494886     0.33500
H107        H  0.47981834  0.03240443  0.83903908     0.36300
H108        H  0.37519638  0.36425981  0.05160309     0.28900
H109        H  0.46245167  0.07242904  0.11809740     0.41800
H110        H  0.14165105  0.15368691  0.04109411     0.31900
H111        H  0.08150115  0.04078269  0.10528248     0.39500
H112        H  0.40115100  0.45587924  0.88329074     0.31300
H113        H  0.09908018  0.13384857  0.93092760     0.31400
H114        H  0.04611210  0.49145722  0.88472516     0.31700
Zr115      Zr  0.02250657  0.48381473  0.54235777     2.17500
O116        O  0.03771930  0.47549207  0.61084765    -0.50700
O117        O  0.04783059  0.45475625  0.50280307    -0.73900
O118        O  0.47427866  0.41005857  0.56000322    -0.80700
O119        O  0.12545127  0.09933207  0.53664711    -0.82400
O120        O  0.40918032  0.38127407  0.53781565    -0.78000
O121        O  0.09797644  0.03395922  0.55860021    -0.89700
O122        O  0.03358927  0.45550612  0.43660492    -0.75600
O123        O  0.47382954  0.44720476  0.48600907    -0.85100
O124        O  0.05742282  0.03015802  0.48380090    -0.84800
O125        O  0.46210471  0.47202634  0.56356904    -0.71600
O126        O  0.03875893  0.04869773  0.56053064    -0.83700
Zr127      Zr  0.46081430  0.04556751  0.46817205     2.26400
Zr128      Zr  0.41342477  0.43702982  0.50820761     2.06300
Zr129      Zr  0.07117017  0.09359646  0.50231110     2.11000
Zr130      Zr  0.00569980  0.49120112  0.43087625     1.78800
O131        O  0.11000221  0.15555633  0.54675742    -0.92500
O132        O  0.45857744  0.42803719  0.38801661    -0.40300
O133        O  0.02348660  0.05877919  0.44633475    -0.77000
O134        O  0.44511482  0.48083672  0.44900970    -0.95600
O135        O  0.42807697  0.50110258  0.52589524    -0.88900
O136        O  0.50894750  0.08131987  0.52317920    -0.91800
C137        C  0.04765617  0.44677686  0.46499438     1.02000
C138        C  0.12860043  0.07401478  0.55384551     1.14900
C139        C  0.43462952  0.37868614  0.55542910     1.05700
O140        O  0.37020707  0.37593882  0.46291375    -0.93900
O141        O  0.35710895  0.43178092  0.47923811    -0.89700
O142        O  0.38639305  0.49556132  0.45079038    -0.82800
C143        C  0.35484685  0.45643185  0.45901528     1.12300
O144        O  0.48757729  0.02460331  0.64881247    -0.95900
Zr145      Zr  0.47513143  0.03573805  0.58020678     1.88900
O146        O  0.43508774  0.07388724  0.50771755    -0.72600
O147        O  0.36048100  0.40469816  0.56205254    -0.51800
O148        O  0.41254231  0.48949106  0.61961991    -0.96500
O149        O  0.02483790  0.10320635  0.61848362    -0.53700
O150        O  0.44593260  0.07000019  0.57432681    -0.73100
C151        C  0.43353724  0.08016724  0.54561604     0.99300
O152        O  0.44899561  0.05886199  0.40022061    -0.61900
O153        O  0.12855185  0.12419914  0.45366739    -0.56700
O154        O  0.01190780  0.12165282  0.45047573    -0.93400
O155        O  0.07773732  0.14905291  0.46817885    -0.91800
O156        O  0.07326868  0.03984303  0.38899507    -0.92200
O157        O  0.49407439  0.00058547  0.36057212    -0.91000
C158        C  0.05214235  0.15239777  0.45237309     1.18100
H159        H  0.08348332  0.03634042  0.47715002     0.34000
H160        H  0.42519560  0.46737452  0.42677488     0.44900
H161        H  0.01736233  0.10929427  0.52915427     0.38400
H162        H  0.45037464  0.45392812  0.58718135     0.34900
H163        H  0.47682107  0.42937954  0.36750926     0.26700
H164        H  0.34917013  0.41934900  0.56097683     0.32600
H165        H  0.39220137  0.99495611  0.61062809     0.38500
H166        H  0.09358620  0.03871281  0.40234094     0.33000
H167        H  0.11784993  0.12632561  0.42805412     0.31900
H168        H  0.13692008  0.17742672  0.53227062     0.33600
H169        H  0.52672610  0.12359309  0.60227188     0.32500
H170        H  0.48756974  0.52391126  0.36563863     0.36500
H171        H  0.47644146  0.07446755  0.38599925     0.29300
H172        H  0.04094961  0.45406329  0.60851813     0.33500
H173        H  0.47513213  0.03279244  0.66718306     0.36300
H174        H  0.15077589  0.15397699  0.46274874     0.28900
H175        H  0.43050113  0.03078211  0.38658239     0.41800
H176        H  0.34499959  0.35363627  0.47926185     0.31900
H177        H  0.44959085  0.40462193  0.40630401     0.39500
H178        H  0.05305574  0.11201518  0.61447156     0.31300
H179        H  0.33701110  0.37554138  0.55224249     0.31400
H180        H  0.01112095  0.46118166  0.62629053     0.31700
C181        C  0.26665713  0.42528918  0.38967787     0.24200
C182        C  0.23248796  0.40442260  0.41692580    -0.23900
C183        C  0.23849853  0.39985478  0.45766932     0.19100
C184        C  0.27819962  0.41617865  0.47115913     0.24200
C185        C  0.31280175  0.43830604  0.44431141    -0.23800
C186        C  0.30673463  0.44251691  0.40339303     0.19100
F187        F  0.33942855  0.46250654  0.37662786    -0.13800
F188        F  0.26146091  0.42997625  0.35017170    -0.16100
F189        F  0.28311123  0.41134182  0.51072793    -0.16100
F190        F  0.20568692  0.37929735  0.48434911    -0.13800
C191        C  0.06985554  0.38556473  0.40410811     0.24200
C192        C  0.10579058  0.39664621  0.42374020    -0.23900
C193        C  0.11754915  0.41858561  0.46129106     0.19100
C194        C  0.09844670  0.43444739  0.47495071     0.24200
C195        C  0.06556736  0.42695570  0.45279006    -0.23800
C196        C  0.05044685  0.40089633  0.41810628     0.19100
F197        F  0.01628728  0.38962176  0.39785209    -0.13800
F198        F  0.05308311  0.35951692  0.37116950    -0.16100
F199        F  0.11286193  0.45790019  0.50962067    -0.16100
F200        F  0.14570195  0.42300172  0.48636031    -0.13800
C201        C  0.06026043  0.24074827  0.40505787     0.24200
C202        C  0.10393026  0.27557790  0.40676692    -0.23900
C203        C  0.13078874  0.26934829  0.42168744     0.19100
C204        C  0.11424599  0.22947782  0.43599749     0.24200
C205        C  0.07019622  0.19457292  0.43548880    -0.23800
C206        C  0.04356742  0.20078805  0.41911837     0.19100
F207        F  0.50059607  0.16921064  0.42277927    -0.13800
F208        F  0.03347807  0.24546392  0.39005033    -0.16100
F209        F  0.14162846  0.22567901  0.45124482    -0.16100
F210        F  0.17299453  0.30242359  0.42468031    -0.13800
C211        C  0.17319980  0.40820626  0.27464745     0.24200
C212        C  0.15662195  0.37149853  0.29699272    -0.23900
C213        C  0.14175120  0.33452786  0.27576881     0.19100
C214        C  0.13937622  0.33308638  0.23309436     0.24200
C215        C  0.15270977  0.36890022  0.21105617    -0.23800
C216        C  0.17173612  0.40704407  0.23223176     0.19100
F217        F  0.18811242  0.44316233  0.21178277    -0.13800
F218        F  0.19001453  0.44515939  0.29398086    -0.16100
F219        F  0.12124408  0.29585139  0.21366618    -0.16100
F220        F  0.12665095  0.29887828  0.29633261    -0.13800
C221        C  0.04825188  0.23517771  0.09889520     0.24200
C222        C  0.09229369  0.26888149  0.10131531    -0.23900
C223        C  0.11905711  0.26097565  0.09008158     0.19100
C224        C  0.10232730  0.22095674  0.07560329     0.24200
C225        C  0.05827161  0.18774585  0.07118031    -0.23800
C226        C  0.03148247  0.19546211  0.08348151     0.19100
F227        F  0.98885756  0.16497944  0.07988072    -0.13800
F228        F  0.02108514  0.24055223  0.11142054    -0.16100
F229        F  0.12971092  0.21519903  0.06540946    -0.16100
F230        F  0.16169063  0.29239741  0.09107845    -0.13800
C231        C  0.25741737  0.42654672  0.11363449     0.24200
C232        C  0.22192679  0.39871571  0.08890100    -0.23900
C233        C  0.22698322  0.38896711  0.04979368     0.19100
C234        C  0.26713159  0.40651799  0.03571849     0.24200
C235        C  0.30290023  0.43445224  0.06046021    -0.23800
C236        C  0.29769712  0.44455117  0.09945673     0.19100
F237        F  0.33150936  0.47129947  0.12408737    -0.13800
F238        F  0.25309964  0.43706257  0.15112844    -0.16100
F239        F  0.27127450  0.39737949  0.99740316    -0.16100
F240        F  0.19299309  0.36261674  0.02519727    -0.13800
C241        C  0.04583154  0.40274371  0.09763339     0.24200
C242        C  0.05666246  0.42241064  0.05938613    -0.23900
C243        C  0.08399378  0.42243205  0.03427525     0.19100
C244        C  0.10294855  0.40679471  0.04846005     0.24200
C245        C  0.09601476  0.39163672  0.08870346    -0.23800
C246        C  0.06437980  0.38670888  0.11162033     0.19100
F247        F  0.05008838  0.36514325  0.14724847    -0.13800
F248        F  0.51131935  0.39234635  0.11711943    -0.16100
F249        F  0.12671969  0.40516493  0.02186784    -0.16100
F250        F  0.10167535  0.94846683  0.99799789    -0.13800
C251        C  0.41228076  0.14235666  0.60503703     0.24200
C252        C  0.37665817  0.13146054  0.58484821    -0.23900
C253        C  0.36471189  0.10912107  0.54764160     0.19100
C254        C  0.38378966  0.09322504  0.53443084     0.24200
C255        C  0.41592087  0.10010628  0.55737998    -0.23800
C256        C  0.43085933  0.12597546  0.59212000     0.19100
F257        F  0.46406235  0.13611633  0.61337254    -0.13800
F258        F  0.42956914  0.16925486  0.63737262    -0.16100
F259        F  0.37008369  0.07031635  0.49945505    -0.16100
F260        F  0.33631445  0.10425256  0.52257816    -0.13800
C261        C  0.42673407  0.28825931  0.59475420     0.24200
C262        C  0.38268224  0.25526424  0.59869828    -0.23900
C263        C  0.35619046  0.26401016  0.59042244     0.19100
C264        C  0.37308027  0.30410131  0.57697163     0.24200
C265        C  0.41700673  0.33667622  0.57147148    -0.23800
C266        C  0.44369366  0.32838461  0.58116225     0.19100
F267        F  0.48627353  0.35864985  0.57655413    -0.13800
F268        F  0.45367387  0.28184970  0.60407410    -0.16100
F269        F  0.34602487  0.31069579  0.56912663    -0.16100
F270        F  0.31360109  0.23348687  0.59357635    -0.13800
C271        C  0.20700621  0.12592646  0.54614859     0.24200
C272        C  0.17089538  0.09238995  0.56798270    -0.23900
C273        C  0.17578240  0.07606849  0.60233503     0.19100
C274        C  0.21611221  0.09315386  0.61460160     0.24200
C275        C  0.25179062  0.12624045  0.59246157    -0.23800
C276        C  0.24707874  0.14237632  0.55810933     0.19100
F277        F  0.28122173  0.17325284  0.53543126    -0.13800
F278        F  0.20343096  0.14154125  0.51210130    -0.16100
F279        F  0.22038206  0.07688683  0.64754834    -0.16100
F280        F  0.14165411  0.04384721  0.62413285    -0.13800
C281        C  0.30483914  0.11957488  0.77209469     0.24200
C282        C  0.32363074  0.15700066  0.79443994    -0.23900
C283        C  0.34064604  0.19458919  0.77365488     0.19100
C284        C  0.34188160  0.19548396  0.73105383     0.24200
C285        C  0.32613991  0.15875432  0.70893192    -0.23800
C286        C  0.30603380  0.12043870  0.72978260     0.19100
F287        F  0.28864835  0.08398143  0.70909336    -0.13800
F288        F  0.28652252  0.08234026  0.79134788    -0.16100
F289        F  0.36125171  0.23286432  0.71164968    -0.16100
F290        F  0.35888905  0.23109543  0.79448026    -0.13800
C291        C  0.35930233  0.08823529  0.89868843     0.24200
C292        C  0.36963975  0.12469334  0.91732837    -0.23900
C293        C  0.39410130  0.13996229  0.95324650     0.19100
C294        C  0.41207850  0.12307481  0.96645474     0.24200
C295        C  0.40554798  0.09013482  0.94467923    -0.23800
C296        C  0.37824212  0.07227883  0.91124443     0.19100
F297        F  0.36864290  0.03823279  0.89141710    -0.13800
F298        F  0.32994126  0.06702312  0.86881990    -0.16100
F299        F  0.43637696  0.13942046  0.00035371    -0.16100
F300        F  0.39934540  0.16981892  0.97697900    -0.13800
C301        C  0.36199257  0.25443688  0.94436686     0.24200
C302        C  0.37526858  0.24965548  0.90739446    -0.23900
C303        C  0.40690882  0.28582864  0.88467882     0.19100
C304        C  0.42403448  0.32631198  0.89823760     0.24200
C305        C  0.40929219  0.33094108  0.93450770    -0.23800
C306        C  0.37840773  0.29458810  0.95759470     0.19100
F307        F  0.36561309  0.29814622  0.99405116    -0.13800
F308        F  0.33422216  0.22023300  0.96847866    -0.16100
F309        F  0.45484862  0.36086327  0.87590716    -0.16100
F310        F  0.42204743  0.28206047  0.85010053    -0.13800
C311        C  0.19734352  0.12904630  0.93686657     0.24200
C312        C  0.16449627  0.08484325  0.94200587    -0.23900
C313        C  0.17261689  0.05787756  0.93156308     0.19100
C314        C  0.21249473  0.07466909  0.91737432     0.24200
C315        C  0.24547049  0.11885887  0.91316225    -0.23800
C316        C  0.23709464  0.14572504  0.92230071     0.19100
F317        F  0.26769426  0.18845462  0.91847716    -0.13800
F318        F  0.19123358  0.15650584  0.94584644    -0.16100
F319        F  0.21860065  0.04740304  0.90726608    -0.16100
F320        F  0.14228704  0.01508825  0.93574037    -0.13800
C321        C  0.35338174  0.64636677  0.89976445     0.87100
C322        C  0.37831780  0.69386961  0.90831195    -0.53100
C323        C  0.35984775  0.70858006  0.89330487     0.10100
C324        C  0.31865246  0.67514746  0.86989703     0.21000
C325        C  0.30853959  0.62354482  0.91559020    -0.53800
C326        C  0.28985885  0.63808006  0.90006827     0.10200
C327        C  0.34954391  0.64364770  0.85329252    -0.53400
C328        C  0.33092671  0.65804021  0.83763852     0.10700
H329        H  0.40813310  0.71496672  0.92418518     0.15200
H330        H  0.30430443  0.68749500  0.85671474     0.01000
H331        H  0.29349206  0.59858999  0.93820268     0.15600
H332        H  0.36149073  0.63225171  0.83408587     0.15300
C333        C  0.35473467  0.64670029  0.60083219     0.87100
C334        C  0.30930412  0.62440107  0.58701407    -0.53100
C335        C  0.29349078  0.64166804  0.60310263     0.10100
C336        C  0.32345857  0.67891747  0.63223125     0.21000
C337        C  0.38031202  0.69378843  0.59104357    -0.53800
C338        C  0.36419008  0.71087473  0.60728461     0.10200
C339        C  0.35075482  0.64396876  0.64736858    -0.53400
C340        C  0.33459904  0.66085239  0.66385564     0.10700
H341        H  0.28973006  0.59637342  0.56806220     0.15200
H342        H  0.30974992  0.69199762  0.64579326     0.01000
H343        H  0.40797516  0.71149572  0.57143176     0.15600
H344        H  0.35942473  0.62926182  0.66583030     0.15300
C345        C  0.12049870  0.87810949  0.10409787     0.87100
C346        C  0.16507827  0.89974936  0.08787757    -0.53100
C347        C  0.18161422  0.88296633  0.10260116     0.10100
C348        C  0.15307724  0.84685547  0.13339736     0.21000
C349        C  0.09447942  0.83062744  0.09529079    -0.53800
C350        C  0.11123795  0.81385170  0.11026819     0.10200
C351        C  0.12677893  0.88264648  0.15047204    -0.53400
C352        C  0.14332669  0.86602265  0.16607413     0.10700
H353        H  0.18335087  0.92702842  0.06790928     0.15200
H354        H  0.16750816  0.83446759  0.14622051     0.01000
H355        H  0.06635619  0.81267643  0.07655845     0.15600
H356        H  0.11936313  0.89833800  0.16953559     0.15300
C357        C  0.12709630  0.88018385  0.40483122     0.87100
C358        C  0.10196390  0.83302932  0.41323608    -0.53100
C359        C  0.11916070  0.81710493  0.39700109     0.10100
C360        C  0.16046520  0.85018201  0.37294993     0.21000
C361        C  0.17225865  0.90270242  0.41956202    -0.53800
C362        C  0.18946484  0.88674268  0.40350276     0.10200
C363        C  0.13223300  0.88445798  0.35835687    -0.53400
C364        C  0.14917714  0.86850236  0.34132448     0.10700
H365        H  0.07384829  0.81432528  0.43227546     0.15200
H366        H  0.17465235  0.83748402  0.35961310     0.01000
H367        H  0.19041780  0.92995512  0.43967816     0.15600
H368        H  0.12300187  0.89882155  0.34022411     0.15300
Zr369      Zr  0.01545472  0.97767874  0.96695611     2.17500
O370        O  0.02907660  0.96410777  0.89967895    -0.50700
O371        O  0.04025778  0.94964062  0.00775329    -0.73900
O372        O  0.09196979  0.52880360  0.95210344    -0.80700
O373        O  0.40230092  0.87745321  0.96453511    -0.82400
O374        O  0.11997462  0.59420431  0.97479880    -0.78000
O375        O  0.46823417  0.90546544  0.94465304    -0.89700
O376        O  0.02864177  0.95524675  0.07376870    -0.75600
O377        O  0.04740244  0.52330957  0.02470296    -0.85100
O378        O  0.46544162  0.94213483  0.02081510    -0.84800
O379        O  0.03278555  0.54320994  0.94630899    -0.71600
O380        O  0.45593832  0.96689884  0.94330927    -0.83700
Zr381      Zr  0.45182784  0.54118163  0.03632346     2.26400
Zr382      Zr  0.06278278  0.58754593  0.00561130     2.06300
Zr383      Zr  0.40558465  0.93191824  0.99749800     2.10000
Zr384      Zr  0.99632451  0.98669910  0.07756340     1.78800
O385        O  0.35238008  0.90144552  0.94466827    -0.92500
O386        O  0.05501420  0.52974921  0.12335676    -0.40300
O387        O  0.43574983  0.97645914  0.05651388    -0.77000
O388        O  0.01238608  0.55179175  0.06008428    -0.95600
O389        O  0.50204702  0.57699597  0.98246675    -0.88900
O390        O  0.41941336  0.49555270  0.97855924    -0.91800
C391        C  0.04179716  0.94466834  0.04588892     1.02000
C392        C  0.42815932  0.87459235  0.94779509     1.14900
C393        C  0.12320370  0.56874431  0.95734570     1.05700
O394        O  0.11968436  0.62239877  0.05498724    -0.93900
O395        O  0.06703506  0.64230586  0.03972258    -0.89700
O396        O  0.00069896  0.61511838  0.05558543    -0.82800
C397        C  0.04096444  0.64565593  0.05487502     1.12300
O398        O  0.48650065  0.52439157  0.85619501    -0.95900
Zr399      Zr  0.46977850  0.53110407  0.92514679     1.88900
O400        O  0.42793569  0.56986419  0.99547692    -0.72600
O401        O  0.10032690  0.64919655  0.96112127    -0.51800
O402        O  0.02511915  0.60217101  0.89439924    -0.96500
O403        O  0.40926058  0.98519412  0.88254581    -0.53700
O404        O  0.43465146  0.55963631  0.92910648    -0.73100
C405        C  0.42352989  0.57195611  0.95735856     0.99300
O406        O  0.43725641  0.55392217  0.10366165    -0.61900
O407        O  0.36123891  0.86996124  0.04143975    -0.56700
O408        O  0.37741232  0.99129546  0.05280650    -0.93400
O409        O  0.34940962  0.92617563  0.02873699    -0.91800
O410        O  0.44296526  0.91989053  0.11305125    -0.92200
O411        O  0.47713115  0.49491076  0.14469014    -0.91000
C412        C  0.34638372  0.95146543  0.04686670     1.18100
H413        H  0.45775068  0.91510337  0.02654680     0.34000
H414        H  0.02349929  0.56972190  0.08397658     0.44900
H415        H  0.39504158  0.98972352  0.97161822     0.38400
H416        H  0.05314026  0.55634829  0.92438317     0.34900
H417        H  0.04977354  0.50958789  0.14399038     0.26700
H418        H  0.12809854  0.67079249  0.97427520     0.32600
H419        H  0.51932994  0.61944992  0.90812338     0.38500
H420        H  0.44588184  0.89992432  0.10155305     0.33000
H421        H  0.33524856  0.84883028  0.02553126     0.31900
H422        H  0.32944847  0.87163335  0.95314087     0.33600
H423        H  0.38520517  0.47977648  0.89499785     0.32500
H424        H  0.96354528  0.50644706  0.13931819     0.36500
H425        H  0.41971318  0.52602936  0.11745276     0.29300
H426        H  0.05178817  0.96304179  0.90331851     0.33500
H427        H  0.47823540  0.53686670  0.83832623     0.36300
H428        H  0.37549556  0.85826602  0.04256309     0.28900
H429        H  0.46449268  0.57102817  0.11831318     0.41800
H430        H  0.10543692  0.61498047  0.08170189     0.31900
H431        H  0.07950628  0.53777403  0.10756221     0.39500
H432        H  0.40374243  0.95820622  0.88098275     0.31300
H433        H  0.10674614  0.64089330  0.93621698     0.31400
H434        H  0.04238768  0.99048642  0.88416862     0.31700
Zr435      Zr  0.02365250  0.98444198  0.54094359     2.17500
O436        O  0.04027885  0.97582842  0.60857848    -0.50700
O437        O  0.04845507  0.95503122  0.50112454    -0.73900
O438        O  0.47457326  0.91053780  0.56221549    -0.80700
O439        O  0.12481558  0.59799628  0.53554724    -0.82400
O440        O  0.40979540  0.88181480  0.53900411    -0.78000
O441        O  0.09700379  0.53323207  0.55972410    -0.89700
O442        O  0.03785494  0.95950048  0.43464162    -0.75600
O443        O  0.47427845  0.94732907  0.48722210    -0.85100
O444        O  0.05538796  0.52855235  0.48441859    -0.84800
O445        O  0.46086993  0.97148572  0.56352441    -0.71600
O446        O  0.03794528  0.54837891  0.56139072    -0.83700
Zr447      Zr  0.46130511  0.54585333  0.46793727     2.26400
Zr448      Zr  0.41304381  0.93641561  0.50749513     2.06300
Zr449      Zr  0.06996473  0.59244432  0.50270022     2.11000
Zr450      Zr  0.00875642  0.99410962  0.42945965     1.78800
O451        O  0.11028766  0.65335049  0.54848286    -0.92500
O452        O  0.45943994  0.92478588  0.39412209    -0.40300
O453        O  0.02184055  0.55676879  0.44710056    -0.77000
O454        O  0.44538165  0.98095994  0.44884615    -0.95600
O455        O  0.42657003  0.99994295  0.52563254    -0.88900
O456        O  0.51040423  0.58185599  0.52230251    -0.91800
C457        C  0.04998198  0.94881170  0.46315084     1.02000
C458        C  0.12788357  0.57303382  0.55375299     1.14900
C459        C  0.43502842  0.87919043  0.55717540     1.05700
O460        O  0.37447303  0.87735341  0.45956638    -0.93900
O461        O  0.35715905  0.93203883  0.47820120    -0.89700
O462        O  0.38614199  0.99601015  0.45043711    -0.82800
C463        C  0.35474868  0.95676487  0.45828087     1.12300
O464        O  0.49309156  0.52846186  0.64810739    -0.95900
Zr465      Zr  0.47740825  0.53692310  0.57985961     1.88900
O466        O  0.43486815  0.57291371  0.50838813    -0.72600
O467        O  0.35525223  0.89712571  0.55655577    -0.51800
O468        O  0.40914034  0.98711867  0.61806962    -0.96500
O469        O  0.02150974  0.60283209  0.62028552    -0.53700
O470        O  0.44593651  0.56890152  0.57492693    -0.73100
C471        C  0.43288784  0.57851196  0.54638604     0.99300
O472        O  0.44781530  0.55844880  0.40045117    -0.61900
O473        O  0.12690766  0.62433412  0.45325522    -0.56700
O474        O  0.00971531  0.61943552  0.44955479    -0.93400
O475        O  0.07505907  0.64782559  0.47039113    -0.91800
O476        O  0.06726376  0.52755079  0.38658394    -0.92200
O477        O  0.49319741  0.50452621  0.36109710    -0.91000
C478        C  0.04962772  0.65064282  0.45309751     1.18100
H479        H  0.08126925  0.53449611  0.47738394     0.34000
H480        H  0.42571815  0.96771378  0.42642334     0.44900
H481        H  0.01647537  0.60855217  0.52958607     0.38400
H482        H  0.44872026  0.95318985  0.58700228     0.34900
H483        H  0.45446731  0.90353390  0.41303203     0.26700
H484        H  0.35064651  0.91682969  0.56419556     0.32600
H485        H  0.39230874  0.49103457  0.60678695     0.38500
H486        H  0.08986528  0.55426168  0.40102850     0.33000
H487        H  0.11647965  0.62827951  0.42859141     0.31900
H488        H  0.13853375  0.67376434  0.53564554     0.33600
H489        H  0.52887246  0.62549761  0.59904419     0.32500
H490        H  0.46772529  0.99596105  0.36216284     0.36500
H491        H  0.47542212  0.57612186  0.38620766     0.29300
H492        H  0.04243830  0.95365800  0.60570427     0.33500
H493        H  0.47945652  0.53508302  0.66678601     0.36300
H494        H  0.14969446  0.65347955  0.46355213     0.28900
H495        H  0.43106636  0.53067813  0.38633378     0.41800
H496        H  0.34669292  0.85534495  0.47266574     0.31900
H497        H  0.43208674  0.91823396  0.39336544     0.39500
H498        H  0.04982860  0.61144359  0.61901000     0.31300
H499        H  0.32999408  0.87456260  0.54050338     0.31400
H500        H  0.01431838  0.96238378  0.62484880     0.31700
C501        C  0.26485213  0.92109377  0.38872691     0.24200
C502        C  0.23147184  0.90273266  0.41662773    -0.23900
C503        C  0.23888432  0.90191368  0.45804664     0.19100
C504        C  0.27892587  0.91904475  0.47135904     0.24200
C505        C  0.31261574  0.93854455  0.44372633    -0.23800
C506        C  0.30541761  0.93962780  0.40230634     0.19100
F507        F  0.33750036  0.95797257  0.37501548    -0.13800
F508        F  0.25845650  0.92220634  0.34861332    -0.16100
F509        F  0.28514987  0.91762061  0.51147970    -0.16100
F510        F  0.20715318  0.88426925  0.48564083    -0.13800
C511        C  0.06986891  0.88540316  0.40293532     0.24200
C512        C  0.10515426  0.89545113  0.42294230    -0.23900
C513        C  0.11683098  0.91702149  0.46066236     0.19100
C514        C  0.09844340  0.93366508  0.47414317     0.24200
C515        C  0.06711402  0.92823339  0.45103292    -0.23800
C516        C  0.05206801  0.90264949  0.41600375     0.19100
F517        F  0.01937656  0.89349953  0.39465502    -0.13800
F518        F  0.05208990  0.85837576  0.37071566    -0.16100
F519        F  0.11194401  0.95572583  0.50962787    -0.16100
F520        F  0.14412471  0.92021686  0.48601439    -0.13800
C521        C  0.05795691  0.73905204  0.40568409     0.24200
C522        C  0.10177731  0.77353754  0.40681372    -0.23900
C523        C  0.12843549  0.76705892  0.42165136     0.19100
C524        C  0.11167629  0.72721160  0.43606013     0.24200
C525        C  0.06756722  0.69273128  0.43631095    -0.23800
C526        C  0.04095313  0.69926108  0.42060374     0.19100
F527        F  0.50126349  0.66787750  0.41526500    -0.13800
F528        F  0.03140600  0.74395628  0.39035768    -0.16100
F529        F  0.13896982  0.72295331  0.45049054    -0.16100
F530        F  0.17072771  0.79987582  0.42433656    -0.13800
C531        C  0.17209063  0.90641480  0.27456291     0.24200
C532        C  0.15507688  0.86933551  0.29644727    -0.23900
C533        C  0.13942282  0.83235010  0.27471024     0.19100
C534        C  0.13773365  0.83169077  0.23196907     0.24200
C535        C  0.15170006  0.86801522  0.21042263    -0.23800
C536        C  0.17048748  0.90578575  0.23218282     0.19100
F537        F  0.18651856  0.94211873  0.21238155    -0.13800
F538        F  0.18928564  0.94324051  0.29437889    -0.16100
F539        F  0.11961948  0.79473652  0.21195849    -0.16100
F540        F  0.12282661  0.79600673  0.29480626    -0.13800
C541        C  0.04891457  0.73627985  0.09693205     0.24200
C542        C  0.09296470  0.76950411  0.10055431    -0.23900
C543        C  0.11936857  0.76044193  0.09216941     0.19100
C544        C  0.10240335  0.72003733  0.07880327     0.24200
C545        C  0.05855929  0.68760766  0.07244954    -0.23800
C546        C  0.03197661  0.69613574  0.08262809     0.19100
F547        F  0.98942780  0.66599339  0.07809247    -0.13800
F548        F  0.02188283  0.74244360  0.10735529    -0.16100
F549        F  0.12937439  0.71306868  0.07170254    -0.16100
F550        F  0.16199781  0.79099090  0.09490903    -0.13800
C551        C  0.25937851  0.93073138  0.11184244     0.24200
C552        C  0.22338322  0.89883637  0.08947301    -0.23900
C553        C  0.22770707  0.88477553  0.05272262     0.19100
C554        C  0.26767275  0.90138751  0.03919324     0.24200
C555        C  0.30405427  0.93336783  0.06164516    -0.23800
C556        C  0.29951146  0.94817924  0.09793517     0.19100
F557        F  0.33383451  0.97934432  0.12010875    -0.13800
F558        F  0.25562423  0.94583296  0.14652615    -0.16100
F559        F  0.27095306  0.88751289  0.00327657    -0.16100
F560        F  0.19331191  0.85579450  0.02944052    -0.13800
C561        C  0.04730889  0.90325890  0.09566328     0.24200
C562        C  0.06012959  0.92570135  0.05892586    -0.23900
C563        C  0.09029196  0.92943622  0.03490985     0.19100
C564        C  0.10929283  0.91370577  0.04858949     0.24200
C565        C  0.09928811  0.89446584  0.08731714    -0.23800
C566        C  0.06584790  0.88710519  0.10917589     0.19100
F567        F  0.05007493  0.86332021  0.14348411    -0.13800
F568        F  0.51523493  0.89630722  0.12117392    -0.16100
F569        F  0.13574052  0.91568764  0.02256039    -0.16100
F570        F  0.09279550  0.43785254  0.99586866    -0.13800
C571        C  0.41253492  0.64263421  0.60317923     0.24200
C572        C  0.37588288  0.63025261  0.58386275    -0.23900
C573        C  0.36141109  0.60412730  0.54886102     0.19100
C574        C  0.38016126  0.58762841  0.53662403     0.24200
C575        C  0.41420560  0.59727539  0.55832176    -0.23800
C576        C  0.43044792  0.62522282  0.59149659     0.19100
F577        F  0.46415648  0.63621223  0.61246654    -0.13800
F578        F  0.43118058  0.67166503  0.63377817    -0.16100
F579        F  0.36415659  0.56120511  0.50395972    -0.16100
F580        F  0.33081216  0.59591886  0.52468731    -0.13800
C581        C  0.42665200  0.78836017  0.59653192     0.24200
C582        C  0.38256125  0.75497988  0.59832906    -0.23900
C583        C  0.35613717  0.76356164  0.58904152     0.19100
C584        C  0.37319921  0.80394688  0.57648867     0.24200
C585        C  0.41726948  0.83703646  0.57299580    -0.23800
C586        C  0.44386462  0.82887440  0.58386502     0.19100
F587        F  0.48658229  0.85957314  0.58112248    -0.13800
F588        F  0.45327617  0.78186179  0.60707560    -0.16100
F589        F  0.34615560  0.81024301  0.56726058    -0.16100
F590        F  0.31350020  0.73257379  0.59031264    -0.13800
C591        C  0.20632987  0.62438247  0.54539717     0.24200
C592        C  0.17030710  0.59156459  0.56784227    -0.23900
C593        C  0.17542157  0.57636305  0.60304508     0.19100
C594        C  0.21584026  0.59370071  0.61541460     0.24200
C595        C  0.25135978  0.62579174  0.59241804    -0.23800
C596        C  0.24642118  0.64087637  0.55734190     0.19100
F597        F  0.28042621  0.67086245  0.53402059    -0.13800
F598        F  0.20267298  0.63933362  0.51086361    -0.16100
F599        F  0.22031345  0.57862449  0.64928915    -0.16100
F600        F  0.14143439  0.54507710  0.62561928    -0.13800
C601        C  0.30670750  0.62018418  0.77121671     0.24200
C602        C  0.32469130  0.65744794  0.79340416    -0.23900
C603        C  0.34026681  0.69460658  0.77259680     0.19100
C604        C  0.34097668  0.69526591  0.72999079     0.24200
C605        C  0.32657914  0.65888270  0.70800245    -0.23800
C606        C  0.30750936  0.62086004  0.72895712     0.19100
F607        F  0.29045246  0.58443218  0.70839668    -0.13800
F608        F  0.28939764  0.58326907  0.79058199    -0.16100
F609        F  0.35823391  0.73207823  0.71046121    -0.16100
F610        F  0.35754656  0.73095932  0.79334803    -0.13800
C611        C  0.35669365  0.58756000  0.90087684     0.24200
C612        C  0.37098465  0.62663513  0.91692515    -0.23900
C613        C  0.39854600  0.64392092  0.95071795     0.19100
C614        C  0.41508114  0.62571886  0.96422620     0.24200
C615        C  0.40412272  0.58960495  0.94494082    -0.23800
C616        C  0.37386448  0.56995075  0.91400875     0.19100
F617        F  0.35978811  0.53275180  0.89739192    -0.13800
F618        F  0.32547116  0.56578376  0.87273430    -0.16100
F619        F  0.44217189  0.64372268  0.99611414    -0.16100
F620        F  0.40794505  0.67676857  0.97264323    -0.13800
C621        C  0.35943908  0.75538237  0.93925355     0.24200
C622        C  0.37556034  0.75105806  0.90431504    -0.23900
C623        C  0.40960562  0.78748491  0.88349159     0.19100
C624        C  0.42717293  0.82797615  0.89752895     0.24200
C625        C  0.41026215  0.83230547  0.93217814    -0.23800
C626        C  0.37617058  0.79547675  0.95279787     0.19100
F627        F  0.36037119  0.79828183  0.98744427    -0.13800
F628        F  0.32876118  0.72072870  0.96152816    -0.16100
F629        F  0.46050289  0.86278103  0.87724687    -0.16100
F630        F  0.42631017  0.78382724  0.85018096    -0.13800
C631        C  0.19738278  0.63019611  0.93321261     0.24200
C632        C  0.16564606  0.58653051  0.94191408    -0.23900
C633        C  0.17476224  0.55984915  0.93507334     0.19100
C634        C  0.21441569  0.57633323  0.92044557     0.24200
C635        C  0.24646209  0.62014138  0.91257565    -0.23800
C636        C  0.23698441  0.64663431  0.91833492     0.19100
F637        F  0.26616123  0.68884194  0.91054254    -0.13800
F638        F  0.19022166  0.65730762  0.93877505    -0.16100
F639        F  0.22098796  0.54894873  0.91327882    -0.16100
F640        F  0.14561269  0.51767430  0.94339908    -0.13800
C641        C  0.85292389  0.14493725  0.89985022     0.87100
C642        C  0.87810957  0.19231929  0.90915082    -0.53100
C643        C  0.85966871  0.20736272  0.89492645     0.10100
C644        C  0.81824285  0.17429968  0.87157315     0.21000
C645        C  0.80830431  0.12217928  0.91627858    -0.53800
C646        C  0.78973207  0.13714936  0.90161517     0.10200
C647        C  0.84878215  0.14286024  0.85339834    -0.53400
C648        C  0.82980831  0.15709051  0.83858450     0.10700
H649        H  0.90783884  0.21277279  0.92532926     0.15200
H650        H  0.80390024  0.18690003  0.85905541     0.01000
H651        H  0.79335399  0.09700596  0.93864705     0.15600
H652        H  0.86099933  0.13225924  0.83341132     0.15300
C653        C  0.85378678  0.14613619  0.60204986     0.87100
C654        C  0.80835119  0.12347391  0.58814857    -0.53100
C655        C  0.79233805  0.14058222  0.60412489     0.10100
C656        C  0.82196841  0.17786283  0.63321826     0.21000
C657        C  0.87897335  0.19307962  0.59210612    -0.53800
C658        C  0.86261276  0.20996639  0.60820394     0.10200
C659        C  0.84967500  0.14333606  0.64862379    -0.53400
C660        C  0.83311478  0.15988221  0.66496169     0.10700
H661        H  0.78913630  0.09553427  0.56899413     0.15200
H662        H  0.80799327  0.19073554  0.64661445     0.01000
H663        H  0.90649571  0.21077425  0.57231544     0.15600
H664        H  0.85826575  0.12860838  0.66717326     0.15300
C665        C  0.61929084  0.37850080  0.10512005     0.87100
C666        C  0.66437938  0.40142284  0.08921927    -0.53100
C667        C  0.68171291  0.38530670  0.10368866     0.10100
C668        C  0.65330243  0.34856117  0.13400118     0.21000
C669        C  0.59437322  0.33138070  0.09568069    -0.53800
C670        C  0.61175895  0.31521545  0.11049877     0.10200
C671        C  0.62502624  0.38242985  0.15154283    -0.53400
C672        C  0.64246500  0.36660765  0.16692137     0.10700
H673        H  0.68208040  0.42870491  0.06922878     0.15200
H674        H  0.66821783  0.33660424  0.14661961     0.01000
H675        H  0.56632117  0.31313766  0.07682846     0.15600
H676        H  0.61677069  0.39727439  0.17079461     0.15300
C677        C  0.62732744  0.38100296  0.40548219     0.87100
C678        C  0.60294791  0.33409346  0.41451478    -0.53100
C679        C  0.62057504  0.31851438  0.39847673     0.10100
C680        C  0.66136393  0.35161932  0.37382542     0.21000
C681        C  0.67275683  0.40430668  0.41992059    -0.53800
C682        C  0.69022455  0.38857350  0.40396355     0.10200
C683        C  0.63202818  0.38478501  0.35904634    -0.53400
C684        C  0.64928828  0.36918278  0.34209521     0.10700
H685        H  0.57505590  0.31536247  0.43385003     0.15200
H686        H  0.67586372  0.33921485  0.36057225     0.01000
H687        H  0.69075526  0.43157520  0.44001268     0.15600
H688        H  0.62244168  0.39878045  0.34084168     0.15300
Zr689      Zr  0.51501386  0.47815668  0.96673571     2.17500
O690        O  0.52948376  0.46532366  0.89952320    -0.50700
O691        O  0.53877461  0.44924794  0.00777772    -0.73900
O692        O  0.59246458  0.02828580  0.95436176    -0.80700
O693        O  0.90151120  0.37643393  0.96483085    -0.82400
O694        O  0.62039698  0.09358293  0.97717153    -0.78000
O695        O  0.96700529  0.40499041  0.94276899    -0.89700
O696        O  0.52607296  0.45375822  0.07372752    -0.75600
O697        O  0.54803484  0.02386108  0.02601104    -0.85100
O698        O  0.96434755  0.44144990  0.01914353    -0.84800
O699        O  0.53294308  0.04341711  0.94758071    -0.71600
O700        O  0.95570837  0.46723820  0.94190726    -0.83700
Zr701      Zr  0.95153737  0.04010028  0.03643560     2.26400
Zr702      Zr  0.56331334  0.08789026  0.00675340     2.06300
Zr703      Zr  0.90467910  0.43158780  0.99542818     2.10000
Zr704      Zr  0.49582003  0.48722729  0.07732414     1.78800
O705        O  0.85602418  0.40366953  0.93866362    -0.92500
O706        O  0.55638114  0.03000440  0.12451796    -0.40300
O707        O  0.93480812  0.47543613  0.05479854    -0.77000
O708        O  0.51305513  0.05260055  0.06139724    -0.95600
O709        O  0.00143861  0.07592638  0.98235576    -0.88900
O710        O  0.91937864  0.99421183  0.97888800    -0.91800
C711        C  0.53937288  0.44333776  0.04585766     1.02000
C712        C  0.92713796  0.37376367  0.94720851     1.14900
C713        C  0.62366862  0.06810060  0.95983675     1.05700
O714        O  0.62011022  0.12244974  0.05623901    -0.93900
O715        O  0.56839296  0.14345270  0.04031982    -0.89700
O716        O  0.50209969  0.11623431  0.05653274    -0.82800
C717        C  0.54237864  0.14691891  0.05543672     1.12300
O718        O  0.98466250  0.01817156  0.85758353    -0.95900
Zr719      Zr  0.96960442  0.02959065  0.92522965     1.88900
O720        O  0.92660366  0.06712256  0.99406776    -0.72600
O721        O  0.60096335  0.14791522  0.96027212    -0.51800
O722        O  0.51909112  0.09792578  0.88834121    -0.96500
O723        O  0.91421137  0.49218336  0.87567723    -0.53700
O724        O  0.93592805  0.05941930  0.92769768    -0.73100
C725        C  0.92355573  0.07051119  0.95585504     0.99300
O726        O  0.93806758  0.05497617  0.10333650    -0.61900
O727        O  0.85579260  0.36797548  0.03640175    -0.56700
O728        O  0.87700563  0.49036628  0.05303028    -0.93400
O729        O  0.84819221  0.42583077  0.02660399    -0.91800
O730        O  0.94448379  0.41863757  0.11200990    -0.92200
O731        O  0.97758040  0.99385185  0.14515584    -0.91000
C732        C  0.84558906  0.45084598  0.04619029     1.18100
H733        H  0.95660181  0.41441440  0.02498248     0.34000
H734        H  0.52422533  0.07065524  0.08520512     0.44900
H735        H  0.89468074  0.48964683  0.96963438     0.38400
H736        H  0.55325669  0.05648994  0.92561664     0.34900
H737        H  0.55636601  0.00928876  0.13904489     0.26700
H738        H  0.62980272  0.16866190  0.97164854     0.32600
H739        H  0.02136075  0.11791863  0.90678048     0.38500
H740        H  0.95127383  0.40086014  0.10363596     0.33000
H741        H  0.83585677  0.34517304  0.01669884     0.31900
H742        H  0.82844238  0.37847710  0.94979668     0.33600
H743        H  0.88412611  0.97745746  0.89746601     0.32500
H744        H  0.45463484  0.99126259  0.14451354     0.36500
H745        H  0.91871827  0.02717288  0.11723562     0.29300
H746        H  0.55018058  0.46152847  0.90383473     0.33500
H747        H  0.97976956  0.03294646  0.83872604     0.36300
H748        H  0.87276206  0.36091773  0.04635809     0.28900
H749        H  0.96486973  0.07032637  0.11845690     0.41800
H750        H  0.60622656  0.11734440  0.08277146     0.31900
H751        H  0.58152889  0.04548535  0.10659036     0.39500
H752        H  0.88838027  0.47974289  0.89174803     0.31300
H753        H  0.60453502  0.13758030  0.93497453     0.31400
H754        H  0.54541842  0.49270680  0.88500629     0.31700
Zr755      Zr  0.52342779  0.48401906  0.53993059     2.17500
O756        O  0.54238295  0.47535486  0.60622280    -0.50700
O757        O  0.54801678  0.45503658  0.49997097    -0.73900
O758        O  0.97365621  0.40969296  0.56209321    -0.80700
O759        O  0.62589658  0.09904526  0.53393515    -0.82400
O760        O  0.90855869  0.38137400  0.54035255    -0.78000
O761        O  0.59740763  0.03467533  0.55990582    -0.89700
O762        O  0.53362631  0.45570139  0.43386232    -0.75600
O763        O  0.97292760  0.44646472  0.48850462    -0.85100
O764        O  0.55650742  0.02917690  0.48409749    -0.84800
O765        O  0.96073605  0.47181792  0.56504341    -0.71600
O766        O  0.53772160  0.04811012  0.56115564    -0.83700
Zr767      Zr  0.96164263  0.04652503  0.46846117     2.26400
Zr768      Zr  0.91231672  0.43647289  0.50951370     2.06300
Zr769      Zr  0.57012679  0.09255577  0.50264586     2.11000
Zr770      Zr  0.50676929  0.49235865  0.42853289     1.78800
O771        O  0.60524394  0.15028446  0.55204040    -0.92500
O772        O  0.95183337  0.42427637  0.39590599    -0.40300
O773        O  0.52253904  0.05743144  0.44646820    -0.77000
O774        O  0.94413004  0.48023788  0.45038983    -0.95600
O775        O  0.92688435  0.50044992  0.52744570    -0.88900
O776        O  0.01010809  0.08244573  0.52336688    -0.91800
C777        C  0.54759579  0.44692069  0.46228259     1.02000
C778        C  0.62852137  0.07422631  0.55309469     1.14900
C779        C  0.93388370  0.37852051  0.55783170     1.05700
O780        O  0.87299195  0.37906081  0.45988163    -0.93900
O781        O  0.85589420  0.43176317  0.48172727    -0.89700
O782        O  0.88541461  0.49534826  0.45265850    -0.82800
C783        C  0.85377750  0.45637521  0.46119443     1.12300
O784        O  0.99310909  0.02789924  0.64812834    -0.95900
Zr785      Zr  0.97676265  0.03691301  0.58045602     1.88900
O786        O  0.93386547  0.07257597  0.50835595    -0.72600
O787        O  0.85499907  0.39953906  0.55914780    -0.51800
O788        O  0.91159890  0.49135891  0.62216596    -0.96500
O789        O  0.52135887  0.10124335  0.61971093    -0.53700
O790        O  0.94610273  0.06982365  0.57481344    -0.73100
C791        C  0.93252520  0.07892014  0.54628411     0.99300
O792        O  0.95009461  0.05925452  0.40010489    -0.61900
O793        O  0.62888683  0.12729849  0.45490463    -0.56700
O794        O  0.51184284  0.12063505  0.44979587    -0.93400
O795        O  0.57727496  0.14861680  0.46975534    -0.91800
O796        O  0.57130882  0.03771413  0.38857902    -0.92200
O797        O  0.99505479  0.00412183  0.36104326    -0.91000
C798        C  0.55189545  0.15174241  0.45311100     1.18100
H799        H  0.58257682  0.03539553  0.47737136     0.34000
H800        H  0.92430614  0.46690068  0.42807622     0.44900
H801        H  0.51625903  0.10819959  0.52890250     0.38400
H802        H  0.94887399  0.45373966  0.58864102     0.34900
H803        H  0.96715970  0.42349075  0.37346199     0.26700
H804        H  0.83473102  0.36978881  0.54934442     0.32600
H805        H  0.90768306  0.01030014  0.63161660     0.38500
H806        H  0.59183452  0.03679126  0.40175615     0.33000
H807        H  0.61643505  0.12400452  0.42813435     0.31900
H808        H  0.62588106  0.17650595  0.53608960     0.33600
H809        H  0.02614799  0.12436599  0.60313094     0.32500
H810        H  0.98477985  0.52031108  0.36703958     0.36500
H811        H  0.97802568  0.07638266  0.38652722     0.29300
H812        H  0.54633072  0.45462512  0.60189047     0.33500
H813        H  0.98099181  0.03582819  0.66735304     0.36300
H814        H  0.64721113  0.15799801  0.46122442     0.28900
H815        H  0.93320701  0.03138144  0.38616673     0.41800
H816        H  0.85351817  0.35286533  0.47619960     0.31900
H817        H  0.94461455  0.40206613  0.41494214     0.39500
H818        H  0.54878035  0.10791675  0.62043114     0.31300
H819        H  0.86711596  0.39833016  0.58416118     0.31400
H820        H  0.51646362  0.46015383  0.62301914     0.31700
C821        C  0.76578483  0.42331111  0.39049786     0.24200
C822        C  0.73178409  0.40412070  0.41771230    -0.23900
C823        C  0.73790511  0.40142365  0.45904329     0.19100
C824        C  0.77742278  0.41760001  0.47299948     0.24200
C825        C  0.81189281  0.43833145  0.44614762    -0.23800
C826        C  0.80585823  0.44109473  0.40478239     0.19100
F827        F  0.83862460  0.46033745  0.37818701    -0.13800
F828        F  0.76046627  0.42593135  0.35042289    -0.16100
F829        F  0.78233983  0.41407689  0.51297285    -0.16100
F830        F  0.70541820  0.38291010  0.48588472    -0.13800
C831        C  0.56900752  0.38459588  0.40306687     0.24200
C832        C  0.60479745  0.39572552  0.42314433    -0.23900
C833        C  0.61652284  0.41795774  0.46043919     0.19100
C834        C  0.59746335  0.43393341  0.47351192     0.24200
C835        C  0.56519386  0.42687979  0.45058089    -0.23800
C836        C  0.55013046  0.40069779  0.41608272     0.19100
F837        F  0.51651464  0.38998189  0.39517122    -0.13800
F838        F  0.55189912  0.35782517  0.37066263    -0.16100
F839        F  0.61128406  0.45700088  0.50841456    -0.16100
F840        F  0.64467549  0.42264957  0.48575411    -0.13800
C841        C  0.56001555  0.24057424  0.40777494     0.24200
C842        C  0.60377537  0.27516575  0.40858748    -0.23900
C843        C  0.63071607  0.26879567  0.42294063     0.19100
C844        C  0.61415544  0.22875425  0.43676808     0.24200
C845        C  0.57000354  0.19413464  0.43705404    -0.23800
C846        C  0.54326317  0.20081250  0.42233662     0.19100
F847        F  0.00107117  0.16849824  0.41728911    -0.13800
F848        F  0.53318435  0.24529061  0.39295460    -0.16100
F849        F  0.64160252  0.22442224  0.45055082    -0.16100
F850        F  0.67300501  0.30174682  0.42551272    -0.13800
C851        C  0.67134066  0.40703854  0.27538003     0.24200
C852        C  0.65507763  0.37013288  0.29721207    -0.23900
C853        C  0.63972235  0.33329246  0.27543109     0.19100
C854        C  0.63786202  0.33262118  0.23269626     0.24200
C855        C  0.65102872  0.36869271  0.21123317    -0.23800
C856        C  0.66931114  0.40631564  0.23303538     0.19100
F857        F  0.68447153  0.44241278  0.21331314    -0.13800
F858        F  0.68811322  0.44374408  0.29522206    -0.16100
F859        F  0.62041583  0.29587243  0.21261983    -0.16100
F860        F  0.62353562  0.29706517  0.29551862    -0.13800
C861        C  0.54989019  0.23747176  0.09725246     0.24200
C862        C  0.59390465  0.27098500  0.10072601    -0.23900
C863        C  0.62056504  0.26231535  0.09205046     0.19100
C864        C  0.60387307  0.22202187  0.07839268     0.24200
C865        C  0.55997112  0.18915945  0.07248593    -0.23800
C866        C  0.53320825  0.19745249  0.08276468     0.19100
F867        F  0.49068604  0.16718520  0.07813325    -0.13800
F868        F  0.52261640  0.24317119  0.10823476    -0.16100
F869        F  0.63115732  0.21559885  0.07057414    -0.16100
F870        F  0.66314951  0.29311236  0.09506761    -0.13800
C871        C  0.75977553  0.43154469  0.11257236     0.24200
C872        C  0.72344074  0.40114998  0.08975906    -0.23900
C873        C  0.72716225  0.38707823  0.05263617     0.19100
C874        C  0.76666720  0.40222655  0.03905010     0.24200
C875        C  0.80342231  0.43311113  0.06162265    -0.23800
C876        C  0.79952063  0.44770759  0.09851883     0.19100
F877        F  0.83409357  0.47720287  0.12132197    -0.13800
F878        F  0.75679524  0.44621973  0.14804797    -0.16100
F879        F  0.76912137  0.38776152  0.00311868    -0.16100
F880        F  0.69253324  0.35910123  0.02924623    -0.13800
C881        C  0.54395633  0.40111287  0.09549770     0.24200
C882        C  0.55711289  0.42379185  0.05886784    -0.23900
C883        C  0.58749349  0.42768887  0.03512097     0.19100
C884        C  0.60657574  0.41216662  0.04910167     0.24200
C885        C  0.59719447  0.39387660  0.08820232    -0.23800
C886        C  0.56328496  0.38596551  0.10973346     0.19100
F887        F  0.54774269  0.36253171  0.14425986    -0.13800
F888        F  0.01625453  0.39783855  0.12135316    -0.16100
F889        F  0.63262669  0.41346598  0.02310934    -0.16100
F890        F  0.59492906  0.94092146  0.99726454    -0.13800
C891        C  0.91166167  0.14220132  0.60425084     0.24200
C892        C  0.87524340  0.13016865  0.58481851    -0.23900
C893        C  0.86187611  0.10575382  0.54874527     0.19100
C894        C  0.88080665  0.08956479  0.53596842     0.24200
C895        C  0.91407106  0.09801111  0.55820918    -0.23800
C896        C  0.92992536  0.12530647  0.59192907     0.19100
F897        F  0.96381361  0.13644669  0.61264543    -0.13800
F898        F  0.92996629  0.17068784  0.63531287    -0.16100
F899        F  0.86597425  0.06497620  0.50203194    -0.16100
F900        F  0.83237356  0.09924022  0.52408661    -0.13800
C901        C  0.92494532  0.28727506  0.59681872     0.24200
C902        C  0.88084918  0.25403052  0.59902125    -0.23900
C903        C  0.85450004  0.26282612  0.59012018     0.19100
C904        C  0.87175552  0.30340681  0.57781547     0.24200
C905        C  0.91587114  0.33627857  0.57376556    -0.23800
C906        C  0.94228362  0.32783850  0.58428331     0.19100
F907        F  0.98500702  0.35841609  0.58159800    -0.13800
F908        F  0.95153829  0.28061258  0.60686588    -0.16100
F909        F  0.84490172  0.31018134  0.56957481    -0.16100
F910        F  0.81182030  0.23189643  0.59148302    -0.13800
C911        C  0.70665929  0.12325244  0.54394383     0.24200
C912        C  0.67060655  0.09248043  0.56748084    -0.23900
C913        C  0.67524988  0.07901642  0.60430841     0.19100
C914        C  0.71526202  0.09556902  0.61697017     0.24200
C915        C  0.75072911  0.12525841  0.59275275    -0.23800
C916        C  0.74639127  0.13921242  0.55641465     0.19100
F917        F  0.78070147  0.16795737  0.53279119    -0.13800
F918        F  0.70332940  0.13680999  0.50815238    -0.16100
F919        F  0.71938547  0.08220470  0.65242742    -0.16100
F920        F  0.64121545  0.05040238  0.62824592    -0.13800
C921        C  0.80416016  0.11862724  0.77221428     0.24200
C922        C  0.82258392  0.15605395  0.79446173    -0.23900
C923        C  0.83829087  0.19320862  0.77365662     0.19100
C924        C  0.83908791  0.19391051  0.73107077     0.24200
C925        C  0.82447293  0.15751760  0.70902162    -0.23800
C926        C  0.80480080  0.11929901  0.72987962     0.19100
F927        F  0.78712939  0.08278048  0.70915587    -0.13800
F928        F  0.78683643  0.08167608  0.79154098    -0.16100
F929        F  0.85685328  0.23086084  0.71158285    -0.16100
F930        F  0.85592416  0.22962663  0.79442238    -0.13800
C931        C  0.85899591  0.08797154  0.89752081     0.24200
C932        C  0.87068191  0.12508857  0.91607919    -0.23900
C933        C  0.89562182  0.14017462  0.95163120     0.19100
C934        C  0.91265967  0.12229744  0.96458859     0.24200
C935        C  0.90429571  0.08827805  0.94323027    -0.23800
C936        C  0.87658243  0.07067972  0.91014760     0.19100
F937        F  0.86520268  0.03562415  0.89082467    -0.13800
F938        F  0.82950417  0.06733998  0.86771453    -0.16100
F939        F  0.93784482  0.13866351  0.99787802    -0.16100
F940        F  0.90207911  0.17066822  0.97535165    -0.13800
C941        C  0.85975632  0.25451904  0.94111256     0.24200
C942        C  0.87567186  0.24988392  0.90618530    -0.23900
C943        C  0.90900374  0.28602691  0.88460472     0.19100
C944        C  0.92580546  0.32656510  0.89753110     0.24200
C945        C  0.90929470  0.33127752  0.93226101    -0.23800
C946        C  0.87590219  0.29469284  0.95374014     0.19100
F947        F  0.86008477  0.29785132  0.98816711    -0.13800
F948        F  0.82982017  0.22019332  0.96414812    -0.16100
F949        F  0.95784932  0.36103255  0.87593343    -0.16100
F950        F  0.92579029  0.28204217  0.85161105    -0.13800
C951        C  0.69781934  0.12951664  0.93625117     0.24200
C952        C  0.66605603  0.08578868  0.94451464    -0.23900
C953        C  0.67488600  0.05899132  0.93663175     0.19100
C954        C  0.71445952  0.07555047  0.92176503     0.24200
C955        C  0.74662464  0.11944261  0.91467697    -0.23800
C956        C  0.73736923  0.14603577  0.92123435     0.19100
F957        F  0.76654420  0.18831181  0.91376941    -0.13800
F958        F  0.69053797  0.15652102  0.94194477    -0.16100
F959        F  0.72077457  0.04816675  0.91323550    -0.16100
F960        F  0.64540103  0.01656469  0.94361218    -0.13800
C961        C  0.85178220  0.64460551  0.90027763     0.87100
C962        C  0.87638228  0.69177482  0.91005275    -0.53100
C963        C  0.85825763  0.70687486  0.89520179     0.10100
C964        C  0.81757980  0.67407033  0.87077933     0.21000
C965        C  0.80652747  0.62114947  0.91525160    -0.53800
C966        C  0.78824589  0.63616230  0.89991453     0.10200
C967        C  0.84898887  0.64323554  0.85370620    -0.53400
C968        C  0.83036235  0.65768147  0.83824800     0.10700
H969        H  0.90590801  0.71241806  0.92648099     0.15200
H970        H  0.80336773  0.68667697  0.85787681     0.01000
H971        H  0.79079632  0.59535284  0.93701099     0.15600
H972        H  0.86132972  0.63239675  0.83426957     0.15300
C973        C  0.85465170  0.64723015  0.60129407     0.87100
C974        C  0.80942336  0.62479203  0.58704718    -0.53100
C975        C  0.79321830  0.64164494  0.60314795     0.10100
C976        C  0.82267915  0.67866961  0.63271060     0.21000
C977        C  0.87998908  0.69425577  0.59181851    -0.53800
C978        C  0.86355266  0.71104924  0.60796690     0.10200
C979        C  0.85013102  0.64384533  0.64776907    -0.53400
C980        C  0.83370514  0.66038711  0.66433603     0.10700
H981        H  0.79043367  0.59705497  0.56760231     0.15200
H982        H  0.80862411  0.69139575  0.64626538     0.01000
H983        H  0.90752702  0.71197806  0.57205498     0.15600
H984        H  0.85860715  0.62891958  0.66614368     0.15300
C985        C  0.61914675  0.87761667  0.10578475     0.87100
C986        C  0.66367071  0.89988931  0.08887293    -0.53100
C987        C  0.68110003  0.88383456  0.10321412     0.10100
C988        C  0.65319166  0.84753368  0.13396588     0.21000
C989        C  0.59359282  0.83031887  0.09693543    -0.53800
C990        C  0.61107603  0.81415275  0.11131098     0.10200
C991        C  0.62610670  0.88236462  0.15204734    -0.53400
C992        C  0.64346286  0.86633022  0.16700094     0.10700
H993        H  0.68096962  0.92686283  0.06847413     0.15200
H994        H  0.66811859  0.83544121  0.14620682     0.01000
H995        H  0.56513655  0.81195305  0.07864078     0.15600
H996        H  0.61893650  0.89804543  0.17148137     0.15300
C997        C  0.62890680  0.88225765  0.40504878     0.87100
C998        C  0.60364219  0.83500065  0.41377274    -0.53100
C999        C  0.62074881  0.81890093  0.39765929     0.10100
C1000       C  0.66169100  0.85159023  0.37319752     0.21000
C1001       C  0.67416886  0.90466648  0.41942206    -0.53800
C1002       C  0.69091103  0.88827487  0.40330852     0.10200
C1003       C  0.63368476  0.88609521  0.35854177    -0.53400
C1004       C  0.65035869  0.86981980  0.34157063     0.10700
H1005       H  0.57560014  0.81639201  0.43291088     0.15200
H1006       H  0.67573020  0.83868625  0.35999658     0.01000
H1007       H  0.69286110  0.93213342  0.43919803     0.15600
H1008       H  0.62451048  0.90049921  0.34038511     0.15300
Zr1009     Zr  0.51679296  0.97889245  0.96783265     2.17500
O1010       O  0.53339792  0.96726091  0.90112704    -0.50700
O1011       O  0.53954086  0.94924669  0.00919663    -0.73900
O1012       O  0.59049951  0.52674856  0.95248965    -0.80700
O1013       O  0.90138213  0.87601069  0.96570700    -0.82400
O1014       O  0.61855363  0.59254302  0.97362579    -0.78000
O1015       O  0.96696665  0.90438353  0.94394334    -0.89700
O1016       O  0.52666225  0.95371882  0.07507720    -0.75600
O1017       O  0.54708584  0.52362706  0.02445030    -0.85100
O1018       O  0.96454803  0.94109826  0.02037274    -0.84800
O1019       O  0.53129754  0.54265788  0.94616416    -0.71600
O1020       O  0.95412472  0.96525750  0.94349904    -0.83700
Zr1021     Zr  0.95187594  0.54055788  0.03569559     2.26400
Zr1022     Zr  0.56245682  0.58765260  0.00501309     2.06300
Zr1023     Zr  0.90411230  0.93040539  0.99800303     2.10000
Zr1024     Zr  0.49638976  0.98720860  0.07855047     1.78800
O1025       O  0.84976960  0.89572128  0.94588686    -0.92500
O1026       O  0.55697198  0.53041693  0.12184718    -0.40300
O1027       O  0.93499132  0.97538654  0.05665350    -0.77000
O1028       O  0.51263792  0.55262439  0.05998296    -0.95600
O1029       O  0.00281097  0.57729519  0.98250304    -0.88900
O1030       O  0.92039440  0.49574836  0.97726839    -0.91800
C1031       C  0.53992245  0.94318794  0.04726903     1.02000
C1032       C  0.92709151  0.87335172  0.94816578     1.14900
C1033       C  0.62169818  0.56673856  0.95684166     1.05700
O1034       O  0.61748026  0.62028860  0.05622547    -0.93900
O1035       O  0.56758706  0.64342844  0.03816457    -0.89700
O1036       O  0.50146565  0.61603702  0.05553483    -0.82800
C1037       C  0.54169455  0.64678675  0.05391125     1.12300
O1038       O  0.98814444  0.52036443  0.85782250    -0.95900
Zr1039     Zr  0.97182510  0.53225124  0.92459220     1.88900
O1040       O  0.92710612  0.56822711  0.99438476    -0.72600
O1041       O  0.60242196  0.64950523  0.96062301    -0.51800
O1042       O  0.51933955  0.59963821  0.89138529    -0.96500
O1043       O  0.90779968  0.98368494  0.88164978    -0.53700
O1044       O  0.93650838  0.56071026  0.92798560    -0.73100
C1045       C  0.92390802  0.57156726  0.95622734     0.99300
O1046       O  0.93730055  0.55374983  0.10286717    -0.61900
O1047       O  0.86147693  0.87057356  0.04458266    -0.56700
O1048       O  0.87670348  0.99044137  0.05380457    -0.93400
O1049       O  0.84764436  0.92583444  0.02715565    -0.91800
O1050       O  0.94679819  0.91819838  0.11134498    -0.92200
O1051       O  0.97382654  0.49114390  0.14392802    -0.91000
C1052       C  0.84522328  0.95106279  0.04654349     1.18100
H1053       H  0.95721082  0.91426908  0.02634510     0.34000
H1054       H  0.52418763  0.57088286  0.08366075     0.44900
H1055       H  0.89356899  0.98801385  0.97148059     0.38400
H1056       H  0.55133227  0.55546768  0.92396612     0.34900
H1057       H  0.55403283  0.50970918  0.13988647     0.26700
H1058       H  0.63243144  0.66563440  0.96760766     0.32600
H1059       H  0.00903800  0.60973630  0.88299570     0.38500
H1060       H  0.96388233  0.91828356  0.13200840     0.33000
H1061       H  0.83809040  0.84664005  0.02777026     0.31900
H1062       H  0.82792154  0.86608650  0.95541074     0.33600
H1063       H  0.91810117  0.51396480  0.85856711     0.32500
H1064       H  0.47072959  0.51367742  0.14068430     0.36500
H1065       H  0.91979823  0.52599827  0.11690825     0.29300
H1066       H  0.55435948  0.96391571  0.90598591     0.33500
H1067       H  0.99559308  0.54367693  0.84036861     0.36300
H1068       H  0.87903398  0.86316855  0.05073060     0.28900
H1069       H  0.96448284  0.57094932  0.11762489     0.41800
H1070       H  0.64315264  0.64571670  0.04279271     0.31900
H1071       H  0.58134448  0.54115626  0.10410180     0.39500
H1072       H  0.90162726  0.95633721  0.88089416     0.31300
H1073       H  0.59922956  0.63805432  0.93309090     0.31400
H1074       H  0.54924770  0.99469705  0.88672699     0.31700
Zr1075     Zr  0.52318263  0.98419954  0.54170187     2.17500
O1076       O  0.54013045  0.97579285  0.60929709    -0.50700
O1077       O  0.54828533  0.95492909  0.50224094    -0.73900
O1078       O  0.97401926  0.91025109  0.56055039    -0.80700
O1079       O  0.62562697  0.59761084  0.53354145    -0.82400
O1080       O  0.90891433  0.88199146  0.53886261    -0.78000
O1081       O  0.59750782  0.53273875  0.55763553    -0.89700
O1082       O  0.53677894  0.95830656  0.43576835    -0.75600
O1083       O  0.97498572  0.94825111  0.48633959    -0.85100
O1084       O  0.55655709  0.52884168  0.48203462    -0.84800
O1085       O  0.96175059  0.97223155  0.56337990    -0.71600
O1086       O  0.53926977  0.54858806  0.55947890    -0.83700
Zr1087     Zr  0.96030502  0.54511747  0.46942625     2.26400
Zr1088     Zr  0.91396302  0.93753344  0.50728545     2.06300
Zr1089     Zr  0.57117692  0.59267915  0.50061688     2.11000
Zr1090     Zr  0.50748392  0.99249916  0.42996113     1.78800
O1091       O  0.61283183  0.65468995  0.54500502    -0.92500
O1092       O  0.96026025  0.92795007  0.39153141    -0.40300
O1093       O  0.52275140  0.55765885  0.44512733    -0.77000
O1094       O  0.94655291  0.98221554  0.44885777    -0.95600
O1095       O  0.92791194  0.00105505  0.52600450    -0.88900
O1096       O  0.00918323  0.58165574  0.52401478    -0.91800
C1097       C  0.54945979  0.94829874  0.46431495     1.02000
C1098       C  0.62842803  0.57244104  0.55171347     1.14900
C1099       C  0.93421865  0.87911357  0.55633663     1.05700
O1100       O  0.87572171  0.87898464  0.45879947    -0.93900
O1101       O  0.85813038  0.93322723  0.47812403    -0.89700
O1102       O  0.88720117  0.99698029  0.44981042    -0.82800
C1103       C  0.85575334  0.95781104  0.45788580     1.12300
O1104       O  0.99403682  0.52793265  0.64836979    -0.95900
Zr1105     Zr  0.97601885  0.53671880  0.58153290     1.88900
O1106       O  0.93438629  0.57321129  0.50870679    -0.72600
O1107       O  0.85660005  0.89975357  0.55680565    -0.51800
O1108       O  0.91243579  0.99137437  0.62126602    -0.96500
O1109       O  0.52490533  0.60403688  0.61675206    -0.53700
O1110       O  0.94477760  0.56898429  0.57539711    -0.73100
C1111       C  0.93231833  0.57900617  0.54659164     0.99300
O1112       O  0.94794130  0.55718802  0.40113571    -0.61900
O1113       O  0.62725073  0.62362844  0.45027897    -0.56700
O1114       O  0.51175033  0.62082695  0.44908533    -0.93400
O1115       O  0.57729849  0.64865106  0.46846698    -0.91800
O1116       O  0.57108796  0.53607213  0.38777157    -0.92200
O1117       O  0.99606567  0.50585871  0.36274676    -0.91000
C1118       C  0.55184411  0.65187124  0.45205319     1.18100
H1119       H  0.58235829  0.53469681  0.47484354     0.34000
H1120       H  0.92695269  0.96894596  0.42636527     0.44900
H1121       H  0.51778246  0.60878065  0.52793416     0.38400
H1122       H  0.94957557  0.95385572  0.58680258     0.34900
H1123       H  0.97837159  0.92815245  0.37185830     0.26700
H1124       H  0.85007210  0.91840249  0.56150147     0.32600
H1125       H  0.91079381  0.51127630  0.63762395     0.38500
H1126       H  0.57027991  0.51549644  0.37148612     0.33000
H1127       H  0.61612866  0.62651818  0.42548212     0.31900
H1128       H  0.63782580  0.67720620  0.52856237     0.33600
H1129       H  0.02428430  0.62418032  0.60356524     0.32500
H1130       H  0.97460544  0.00838974  0.36468414     0.36500
H1131       H  0.97520423  0.57244773  0.38665905     0.29300
H1132       H  0.54232346  0.95363936  0.60651236     0.33500
H1133       H  0.98108849  0.53443893  0.66820851     0.36300
H1134       H  0.64997576  0.65316529  0.45970929     0.28900
H1135       H  0.92919377  0.52883975  0.38802176     0.41800
H1136       H  0.84848418  0.85624323  0.47236986     0.31900
H1137       H  0.95113635  0.90540323  0.41113697     0.39500
H1138       H  0.55259820  0.61124815  0.61609488     0.31300
H1139       H  0.83187060  0.87501512  0.54180504     0.31400
H1140       H  0.51430201  0.96247459  0.62575051     0.31700
C1141       C  0.76627127  0.92340922  0.38842897     0.24200
C1142       C  0.73262111  0.90371166  0.41614482    -0.23900
C1143       C  0.73938057  0.90091562  0.45718800     0.19100
C1144       C  0.77941973  0.91820214  0.47054866     0.24200
C1145       C  0.81359672  0.93944957  0.44325264    -0.23800
C1146       C  0.80678406  0.94191023  0.40203527     0.19100
F1147       F  0.83916205  0.96155206  0.37494065    -0.13800
F1148       F  0.76009495  0.92567943  0.34851870    -0.16100
F1149       F  0.78512595  0.91526774  0.51043794    -0.16100
F1150       F  0.70697074  0.88111840  0.48429079    -0.13800
C1151       C  0.57096516  0.88651607  0.40377895     0.24200
C1152       C  0.60719046  0.89789995  0.42307928    -0.23900
C1153       C  0.61989864  0.92103755  0.46003732     0.19100
C1154       C  0.60067828  0.93671856  0.47381126     0.24200
C1155       C  0.56730139  0.92852764  0.45210650    -0.23800
C1156       C  0.55174416  0.90203924  0.41774751     0.19100
F1157       F  0.51725374  0.89043626  0.39789916    -0.13800
F1158       F  0.55372476  0.85999480  0.37118802    -0.16100
F1159       F  0.61539758  0.96066079  0.50817989    -0.16100
F1160       F  0.64917186  0.92692720  0.48453202    -0.13800
C1161       C  0.56043131  0.74047793  0.40447302     0.24200
C1162       C  0.60383632  0.77555504  0.40782265    -0.23900
C1163       C  0.63042490  0.76962346  0.42427069     0.19100
C1164       C  0.61383058  0.72959906  0.43810460     0.24200
C1165       C  0.56995279  0.69431340  0.43586242    -0.23800
C1166       C  0.54359907  0.70041752  0.41841997     0.19100
F1167       F  0.99827916  0.66757073  0.42041452    -0.13800
F1168       F  0.53415409  0.74501197  0.38758774    -0.16100
F1169       F  0.64097267  0.72596144  0.45443309    -0.16100
F1170       F  0.67236860  0.80301066  0.42881469    -0.13800
C1171       C  0.67308397  0.90754743  0.27477681     0.24200
C1172       C  0.65648218  0.87065841  0.29679586    -0.23900
C1173       C  0.64187901  0.83391149  0.27526287     0.19100
C1174       C  0.63996882  0.83298362  0.23256734     0.24200
C1175       C  0.65294895  0.86889113  0.21098102    -0.23800
C1176       C  0.67164723  0.90674907  0.23244358     0.19100
F1177       F  0.68767501  0.94294558  0.21235703    -0.13800
F1178       F  0.68972235  0.94432315  0.29436420    -0.16100
F1179       F  0.62269239  0.79618205  0.21266537    -0.16100
F1180       F  0.62656383  0.79801767  0.29547783    -0.13800
C1181       C  0.54919111  0.73637014  0.09873436     0.24200
C1182       C  0.59322749  0.77012003  0.10109777    -0.23900
C1183       C  0.62000367  0.76208164  0.09049374     0.19100
C1184       C  0.60336231  0.72207188  0.07609528     0.24200
C1185       C  0.55934381  0.68887025  0.07138498    -0.23800
C1186       C  0.53248224  0.69653587  0.08365617     0.19100
F1187       F  0.48983455  0.66580010  0.08057174    -0.13800
F1188       F  0.52200229  0.74172581  0.11125669    -0.16100
F1189       F  0.63081585  0.71628569  0.06641138    -0.16100
F1190       F  0.66262758  0.79334358  0.09218661    -0.13800
C1191       C  0.75802133  0.92559078  0.11500437     0.24200
C1192       C  0.72285920  0.90000199  0.08942487    -0.23900
C1193       C  0.72792007  0.89147624  0.04973987     0.19100
C1194       C  0.76766576  0.90764812  0.03595763     0.24200
C1195       C  0.80315256  0.93355345  0.06138217    -0.23800
C1196       C  0.79806307  0.94274775  0.10092893     0.19100
F1197       F  0.83172153  0.96779819  0.12612131    -0.13800
F1198       F  0.75367966  0.93479631  0.15319586    -0.16100
F1199       F  0.77176496  0.89922034  0.99730052    -0.16100
F1200       F  0.69427809  0.86756533  0.02433807    -0.13800
C1201       C  0.54594685  0.90275877  0.09802921     0.24200
C1202       C  0.55736029  0.92332562  0.06028084    -0.23900
C1203       C  0.58558547  0.92461567  0.03533659     0.19100
C1204       C  0.60470219  0.90913178  0.04928141     0.24200
C1205       C  0.59721541  0.89314591  0.08921483    -0.23800
C1206       C  0.56494651  0.88722122  0.11193190     0.19100
F1207       F  0.55040374  0.86504111  0.14720391    -0.13800
F1208       F  0.01562256  0.89556991  0.11812141    -0.16100
F1209       F  0.62898354  0.90826771  0.02267128    -0.16100
F1210       F  0.59910281  0.44677397  0.99822946    -0.13800
C1211       C  0.91202615  0.64272821  0.60410814     0.24200
C1212       C  0.87613062  0.63136512  0.58412277    -0.23900
C1213       C  0.86314952  0.60747742  0.54775981     0.19100
C1214       C  0.88156138  0.59066536  0.53541802     0.24200
C1215       C  0.91434719  0.59858033  0.55808267    -0.23800
C1216       C  0.93021803  0.62581192  0.59180616     0.19100
F1217       F  0.96402579  0.63682125  0.61256811    -0.13800
F1218       F  0.92979251  0.67042452  0.63581595    -0.16100
F1219       F  0.86668756  0.56597227  0.50155106    -0.16100
F1220       F  0.83454186  0.60204719  0.52254067    -0.13800
C1221       C  0.92574197  0.78822162  0.59534413     0.24200
C1222       C  0.88167390  0.75505854  0.59853976    -0.23900
C1223       C  0.85519147  0.76376516  0.58992693     0.19100
C1224       C  0.87226525  0.80423596  0.57734964     0.24200
C1225       C  0.91628874  0.83694075  0.57236115    -0.23800
C1226       C  0.94282994  0.82847908  0.58208003     0.19100
F1227       F  0.98544749  0.85873173  0.57782022    -0.13800
F1228       F  0.95259836  0.78180540  0.60502934    -0.16100
F1229       F  0.84535674  0.81108570  0.56978667    -0.16100
F1230       F  0.81253493  0.73282084  0.59178490    -0.13800
C1231       C  0.70650254  0.62238694  0.54291067     0.24200
C1232       C  0.67054225  0.59060799  0.56595048    -0.23900
C1233       C  0.67541250  0.57633482  0.60205628     0.19100
C1234       C  0.71571744  0.59390393  0.61493282     0.24200
C1235       C  0.75129585  0.62563856  0.59183187    -0.23800
C1236       C  0.74656266  0.63965283  0.55576032     0.19100
F1237       F  0.78075139  0.66939809  0.53249432    -0.13800
F1238       F  0.70274255  0.63553923  0.50707165    -0.16100
F1239       F  0.72004716  0.57936373  0.64935690    -0.16100
F1240       F  0.64133567  0.54581519  0.62501038    -0.13800
C1241       C  0.80590495  0.61952849  0.77188828     0.24200
C1242       C  0.82366838  0.65678182  0.79404381    -0.23900
C1243       C  0.83889401  0.69375827  0.77317495     0.19100
C1244       C  0.84003007  0.69451498  0.73058140     0.24200
C1245       C  0.82569202  0.65818294  0.70856611    -0.23800
C1246       C  0.80688822  0.62020351  0.72958740     0.19100
F1247       F  0.79044110  0.58388997  0.70911945    -0.13800
F1248       F  0.78859968  0.58263888  0.79133490    -0.16100
F1249       F  0.85796063  0.73150984  0.71108963    -0.16100
F1250       F  0.85538780  0.72989380  0.79389846    -0.13800
C1251       C  0.85705849  0.58715513  0.89939480     0.24200
C1252       C  0.86945764  0.62485462  0.91712645    -0.23900
C1253       C  0.89563494  0.64100532  0.95189783     0.19100
C1254       C  0.91287136  0.62331772  0.96482116     0.24200
C1255       C  0.90408744  0.58888861  0.94387837    -0.23800
C1256       C  0.87523117  0.57032001  0.91169352     0.19100
F1257       F  0.86344612  0.53486616  0.89293792    -0.13800
F1258       F  0.82668373  0.56592149  0.87041021    -0.16100
F1259       F  0.93862083  0.64026890  0.99771365    -0.16100
F1260       F  0.90304633  0.67223740  0.97513838    -0.13800
C1261       C  0.86070489  0.75449794  0.94291534     0.24200
C1262       C  0.87439431  0.74945840  0.90643692    -0.23900
C1263       C  0.90662625  0.78542110  0.88384665     0.19100
C1264       C  0.92403709  0.82608187  0.89708363     0.24200
C1265       C  0.90934510  0.83101887  0.93319618    -0.23800
C1266       C  0.87782147  0.79482212  0.95610527     0.19100
F1267       F  0.86502100  0.79866500  0.99241384    -0.13800
F1268       F  0.83189272  0.72036606  0.96668379    -0.16100
F1269       F  0.95499125  0.86042666  0.87462148    -0.16100
F1270       F  0.92197138  0.78119802  0.84972233    -0.13800
C1271       C  0.69634465  0.62824592  0.93421959     0.24200
C1272       C  0.66393534  0.58425698  0.94094353    -0.23900
C1273       C  0.67225175  0.55724416  0.93148590     0.19100
C1274       C  0.71204883  0.57391634  0.91705211     0.24200
C1275       C  0.74473900  0.61803335  0.91168870    -0.23800
C1276       C  0.73594193  0.64477711  0.91941687     0.19100
F1277       F  0.76598455  0.68735700  0.91397912    -0.13800
F1278       F  0.68995761  0.65569453  0.94183249    -0.16100
F1279       F  0.71829061  0.54659804  0.90774230    -0.16100
F1280       F  0.64219544  0.51457100  0.93677778    -0.13800
loop_ 
_geom_bond_atom_site_label_1 
_geom_bond_atom_site_label_2 
_geom_bond_distance 
_geom_bond_site_symmetry_2 
_ccdc_geom_bond_type 
C1            C2   1.540       .  S
C1            C7   1.538       .  S
C1            C5   1.535       .  S
C1          C292   1.534       .  S
C2            H9   1.083       .  S
C2            C3   1.361       .  D
C3            C4   1.541       .  S
C3          C302   1.475       .  S
C4            C8   1.540       .  S
C4            C6   1.545       .  S
C4           H10   1.110       .  S
C5           H11   1.086       .  S
C5            C6   1.369       .  D
C6          C315   1.494       .  S
C7           H12   1.086       .  S
C7            C8   1.363       .  D
C8          C282   1.482       .  S
C13          C14   1.542       .  S
C13          C19   1.537       .  S
C13          C17   1.529       .  S
C13         C252   1.529       .  S
C14          H21   1.082       .  S
C14          C15   1.363       .  D
C15          C16   1.535       .  S
C15         C275   1.467       .  S
C16          C20   1.535       .  S
C16          C18   1.543       .  S
C16          H22   1.109       .  S
C17          H23   1.086       .  S
C17          C18   1.367       .  D
C18         C262   1.487       .  S
C19          H24   1.086       .  S
C19          C20   1.363       .  D
C20         C285   1.481       .  S
C25          C26   1.542       .  S
C25          C31   1.541       .  S
C25          C29   1.531       .  S
C25         C245   1.539       .  S
C26          H33   1.084       .  S
C26          C27   1.364       .  D
C27          C28   1.540       .  S
C27         C232   1.476       .  S
C28          C32   1.542       .  S
C28          C30   1.548       .  S
C28          H34   1.109       .  S
C29          H35   1.085       .  S
C29          C30   1.369       .  D
C30         C222   1.496       .  S
C31          H36   1.085       .  S
C31          C32   1.367       .  D
C32         C215   1.493       .  S
C37          C38   1.532       .  S
C37          C43   1.541       .  S
C37          C41   1.543       .  S
C37         C192   1.540       .  S
C38          H45   1.086       .  S
C38          C39   1.366       .  D
C39          C40   1.544       .  S
C39         C202   1.487       .  S
C40          C44   1.543       .  S
C40          C42   1.538       .  S
C40          H46   1.110       .  S
C41          H47   1.082       .  S
C41          C42   1.364       .  D
C42         C182   1.478       .  S
C43          H48   1.085       .  S
C43          C44   1.369       .  D
C44         C212   1.493       .  S
Zr49         O50   2.438       .  S
Zr49         O51   2.436   1_556  S
Zr49        O372   2.443       .  S
Zr49        O695   2.436   1_455  S
Zr49        O377   2.382   1_556  S
Zr49        O698   2.386   1_456  S
Zr49        O379   2.405       .  S
Zr49        O700   2.404   1_455  S
O50         H106   0.990       .  S
O50         H114   0.990       .  S
O51          C71   1.285       .  A
O52        Zr369   2.433   1_545  S
O52          C73   1.285       .  A
O53         Zr63   2.440       .  S
O53          C72   1.287       .  A
O54         Zr62   2.440   1_556  S
O54          C73   1.286       .  A
O55        Zr689   2.427       .  S
O55          C72   1.284       .  A
O56         Zr64   2.430   1_455  S
O56          C71   1.284       .  A
O57         Zr62   2.392       .  S
O57        Zr369   2.381   1_544  S
O57        Zr384   2.378   1_445  S
O58         Zr63   2.387   1_554  S
O58        Zr689   2.384   1_554  S
O58        Zr704   2.367       .  S
O58          H93   0.967       .  S
O59         Zr62   2.396   1_556  S
O59        Zr369   2.399   1_545  S
O59        Zr719   2.394   1_455  S
O59          H96   0.966       .  S
O60         Zr63   2.392       .  S
O60        Zr689   2.401       .  S
O60        Zr399   2.396       .  S
Zr61         O86   2.443       .  S
Zr61         O80   2.423   1_554  S
Zr61        O408   2.435   1_545  S
Zr61        O716   2.441       .  S
Zr61         O69   2.380   1_554  S
Zr61         O70   2.383   1_544  S
Zr61        O387   2.399   1_545  S
Zr61        O708   2.400       .  S
Zr62         O81   2.437   1_554  S
Zr62         O74   2.434       .  S
Zr62         O75   2.438       .  S
Zr62         O68   2.398       .  S
Zr62        O709   2.387   1_554  S
Zr63         O65   2.434       .  S
Zr63         O87   2.436   1_556  S
Zr63         O89   2.435   1_556  S
Zr63         O67   2.396   1_556  S
Zr63        O390   2.382       .  S
Zr64        O730   2.439       .  S
Zr64       O1051   2.435       .  S
Zr64        O386   2.436   1_655  S
Zr64        O377   2.380   1_655  S
Zr64        O698   2.369       .  S
Zr64        O707   2.392       .  S
Zr64        O388   2.399   1_655  S
O65         H102   0.990       .  S
O66        Zr384   2.434   1_445  S
O66          H97   0.990       .  S
O66         H111   0.990       .  S
O67        Zr381   2.402       .  S
O67        Zr704   2.395       .  S
O68        Zr701   2.403   1_455  S
O68        Zr384   2.400   1_445  S
O68          H94   0.967       .  S
O69         Zr79   2.380       .  S
O69        Zr702   2.389   1_556  S
O70         Zr79   2.372   1_565  S
O70        Zr383   2.381       .  S
O70         H415   0.966       .  S
C71         C242   1.491       .  S
C72         C305   1.480       .  S
C73         C312   1.495       .  S
O74         H110   0.990       .  S
O75          C77   1.286       .  A
O76        Zr701   2.434   1_455  S
O76          C77   1.285       .  A
C77         C225   1.497       .  S
O78         Zr79   2.441       .  S
O78         H107   0.990       .  S
Zr79        O722   2.437       .  S
Zr79        O403   2.441   1_545  S
Zr79         O84   2.429       .  S
Zr79        O699   2.401       .  S
Zr79        O380   2.395   1_545  S
O80          C85   1.283       .  A
O81          H98   0.990       .  S
O81         H113   0.990       .  S
O82        Zr719   2.437   1_455  S
O82         H739   0.990       .  S
O83        Zr399   2.439       .  S
O83         H112   0.990       .  S
O83         H423   0.990       .  S
O84          C85   1.284       .  A
C85         C295   1.477       .  S
O86         H105   0.990       .  S
O86         H109   0.990       .  S
O87         H101   0.990       .  S
O87         H108   0.990       .  S
O88        Zr381   2.438       .  S
O88          C92   1.286       .  A
O89          C92   1.285       .  A
O90        Zr704   2.435       .  S
O90         H100   0.990       .  S
O91       Zr1024   2.436       .  S
O91         H744   0.990       .  S
C92         C235   1.480       .  S
H95         O390   0.966       .  S
H99         O722   0.990       .  S
H103        O403   0.990       .  S
H104        O731   0.990       .  S
Zr115       O116   2.437       .  S
Zr115       O117   2.437       .  S
Zr115       O758   2.423   1_455  S
Zr115       O441   2.428       .  S
Zr115       O763   2.379   1_455  S
Zr115       O444   2.379       .  S
Zr115       O765   2.407   1_455  S
Zr115       O446   2.399       .  S
O116        H172   0.990       .  S
O116        H180   0.990       .  S
O117        C137   1.286       .  A
O118       Zr755   2.422       .  S
O118        C139   1.283       .  A
O119       Zr129   2.416       .  S
O119        C138   1.283       .  A
O120       Zr128   2.424       .  S
O120        C139   1.284       .  A
O121       Zr435   2.425   1_545  S
O121        C138   1.284       .  A
O122       Zr130   2.431       .  S
O122        C137   1.285       .  A
O123       Zr128   2.386       .  S
O123       Zr755   2.380       .  S
O123       Zr770   2.374       .  S
O124       Zr129   2.384       .  S
O124       Zr435   2.377   1_545  S
O124       Zr450   2.371   1_545  S
O124        H159   0.967       .  S
O125       Zr128   2.394       .  S
O125       Zr755   2.399       .  S
O125       Zr465   2.393       .  S
O125        H162   0.965       .  S
O126       Zr129   2.388       .  S
O126       Zr435   2.398   1_545  S
O126       Zr785   2.394   1_455  S
Zr127       O152   2.441       .  S
Zr127       O146   2.425       .  S
Zr127       O794   2.442       .  S
Zr127       O462   2.436   1_545  S
Zr127       O136   2.376       .  S
Zr127       O773   2.398       .  S
Zr127       O454   2.403   1_545  S
Zr127       O455   2.385   1_545  S
Zr128       O147   2.437       .  S
Zr128       O140   2.435       .  S
Zr128       O141   2.426       .  S
Zr128       O134   2.394       .  S
Zr128       O135   2.384       .  S
Zr129       O131   2.435       .  S
Zr129       O153   2.434       .  S
Zr129       O155   2.426       .  S
Zr129       O133   2.390       .  S
Zr129       O776   2.381       .  S
Zr130       O476   2.435       .  S
Zr130      O1117   2.435   1_455  S
Zr130       O772   2.437   1_455  S
Zr130       O763   2.370   1_455  S
Zr130       O444   2.374       .  S
Zr130       O453   2.403       .  S
Zr130       O774   2.391   1_455  S
O131        H168   0.990       .  S
O132       Zr770   2.436       .  S
O132        H163   0.990       .  S
O132        H177   0.990       .  S
O133       Zr767   2.399   1_455  S
O133       Zr450   2.400   1_545  S
O134       Zr447   2.401       .  S
O134       Zr770   2.391       .  S
O134        H160   0.968       .  S
O135       Zr447   2.380       .  S
O135       Zr465   2.373       .  S
O136       Zr145   2.372       .  S
O136       Zr769   2.379       .  S
O136        H801   0.966       .  S
C137        C195   1.488       .  S
C138        C272   1.474       .  S
C139        C265   1.484       .  S
O140        H176   0.990       .  S
O141        C143   1.284       .  A
O142       Zr447   2.439       .  S
O142        C143   1.286       .  A
C143        C185   1.474       .  S
O144       Zr145   2.438       .  S
O144        H173   0.990       .  S
Zr145       O468   2.438   1_545  S
Zr145       O789   2.439       .  S
Zr145       O150   2.425       .  S
Zr145       O445   2.392   1_545  S
Zr145       O766   2.398       .  S
Zr145       O455   2.374   1_545  S
O146        C151   1.284       .  A
O147        H164   0.990       .  S
O147        H179   0.990       .  S
O148       Zr465   2.439       .  S
O148        H485   0.990       .  S
O149       Zr785   2.439   1_455  S
O149        H178   0.990       .  S
O149        H809   0.990       .  S
O150        C151   1.283       .  A
C151        C255   1.478       .  S
O152        H171   0.990       .  S
O152        H175   0.990       .  S
O153        H167   0.990       .  S
O153        H174   0.990       .  S
O154       Zr767   2.439   1_455  S
O154        C158   1.287       .  A
O155        C158   1.284       .  A
O156       Zr450   2.438   1_545  S
O156        H166   0.990       .  S
O157      Zr1090   2.436   1_545  S
O157        H490   0.990   1_545  S
C158        C205   1.495       .  S
H161        O776   0.966       .  S
H165        O468   0.990       .  S
H169        O789   0.990       .  S
H170        O477   0.990       .  S
C181        C182   1.404       .  A
C181        C186   1.402       .  A
C181        F188   1.358       .  S
C182        C183   1.405       .  A
C183        C184   1.397       .  A
C183        F190   1.358       .  S
C184        C185   1.405       .  A
C184        F189   1.358       .  S
C185        C186   1.407       .  A
C186        F187   1.358       .  S
C191        C192   1.414       .  A
C191        C196   1.399       .  A
C191        F198   1.358       .  S
C192        C193   1.418       .  A
C193        C194   1.402       .  A
C193        F200   1.355       .  S
C194        C195   1.406       .  A
C194        F199   1.358       .  S
C195        C196   1.406       .  A
C196        F197   1.358       .  S
C201        C202   1.406       .  A
C201        C206   1.399       .  A
C201        F208   1.358       .  S
C202        C203   1.404       .  A
C203        C204   1.400       .  A
C203        F210   1.357       .  S
C204        C205   1.415       .  A
C204        F209   1.358       .  S
C205        C206   1.413       .  A
C206        F847   1.358       .  S
F207        C846   1.358       .  S
C211        C212   1.407       .  A
C211        C216   1.398       .  A
C211        F218   1.358       .  S
C212        C213   1.409       .  A
C213        C214   1.408       .  A
C213        F220   1.357       .  S
C214        C215   1.408       .  A
C214        F219   1.357       .  S
C215        C216   1.407       .  A
C216        F217   1.358       .  S
C221        C222   1.409       .  A
C221        C226   1.400       .  A
C221        F228   1.358       .  S
C222        C223   1.408       .  A
C223        C224   1.401       .  A
C223        F230   1.356       .  S
C224        C225   1.413       .  A
C224        F229   1.358       .  S
C225        C226   1.412       .  A
C226        F227   1.358   1_455  S
C231        C232   1.401       .  A
C231        C236   1.401       .  A
C231        F238   1.358       .  S
C232        C233   1.404       .  A
C233        C234   1.400       .  A
C233        F240   1.358       .  S
C234        C235   1.408       .  A
C234        F239   1.358   1_554  S
C235        C236   1.408       .  A
C236        F237   1.357       .  S
C241        C242   1.408       .  A
C241        C246   1.399       .  A
C241        F888   1.358       .  S
C242        C243   1.408       .  A
C243        C244   1.402       .  A
C243        F570   1.358   1_554  S
C244        C245   1.416       .  A
C244        F249   1.356       .  S
C245        C246   1.414       .  A
C246        F247   1.357       .  S
F248        C881   1.359       .  S
F250        C563   1.358   1_556  S
C251        C252   1.414       .  A
C251        C256   1.394       .  A
C251        F258   1.359       .  S
C252        C253   1.415       .  A
C253        C254   1.398       .  A
C253        F260   1.355       .  S
C254        C255   1.405       .  A
C254        F259   1.358       .  S
C255        C256   1.404       .  A
C256        F257   1.358       .  S
C261        C262   1.409       .  A
C261        C266   1.397       .  A
C261        F268   1.358       .  S
C262        C263   1.407       .  A
C263        C264   1.395       .  A
C263        F270   1.355       .  S
C264        C265   1.409       .  A
C264        F269   1.358       .  S
C265        C266   1.410       .  A
C266        F267   1.358       .  S
C271        C272   1.409       .  A
C271        C276   1.394       .  A
C271        F278   1.358       .  S
C272        C273   1.408       .  A
C273        C274   1.398       .  A
C273        F280   1.358       .  S
C274        C275   1.401       .  A
C274        F279   1.358       .  S
C275        C276   1.400       .  A
C276        F277   1.358       .  S
C281        C282   1.406       .  A
C281        C286   1.394       .  A
C281        F288   1.358       .  S
C282        C283   1.405       .  A
C283        C284   1.404       .  A
C283        F290   1.356       .  S
C284        C285   1.406       .  A
C284        F289   1.358       .  S
C285        C286   1.405       .  A
C286        F287   1.358       .  S
C291        C292   1.415       .  A
C291        C296   1.395       .  A
C291        F298   1.358       .  S
C292        C293   1.417       .  A
C293        C294   1.400       .  A
C293        F300   1.356       .  S
C294        C295   1.404       .  A
C294        F299   1.358   1_556  S
C295        C296   1.402       .  A
C296        F297   1.358       .  S
C301        C302   1.402       .  A
C301        C306   1.396       .  A
C301        F308   1.358       .  S
C302        C303   1.404       .  A
C303        C304   1.403       .  A
C303        F310   1.357       .  S
C304        C305   1.410       .  A
C304        F309   1.358       .  S
C305        C306   1.407       .  A
C306        F307   1.358       .  S
C311        C312   1.412       .  A
C311        C316   1.401       .  A
C311        F318   1.358       .  S
C312        C313   1.412       .  A
C313        C314   1.400       .  A
C313        F320   1.358       .  S
C314        C315   1.409       .  A
C314        F319   1.358       .  S
C315        C316   1.407       .  A
C316        F317   1.356       .  S
C321        C322   1.541       .  S
C321        C327   1.536       .  S
C321        C325   1.535       .  S
C321        C612   1.533       .  S
C322        H329   1.082       .  S
C322        C323   1.362       .  D
C323        C324   1.538       .  S
C323        C622   1.472       .  S
C324        C328   1.538       .  S
C324        C326   1.546       .  S
C324        H330   1.109       .  S
C325        H331   1.085       .  S
C325        C326   1.370       .  D
C326        C635   1.499       .  S
C327        H332   1.086       .  S
C327        C328   1.364       .  D
C328        C602   1.479       .  S
C333        C334   1.544       .  S
C333        C339   1.538       .  S
C333        C337   1.533       .  S
C333        C572   1.534       .  S
C334        H341   1.081       .  S
C334        C335   1.362       .  D
C335        C336   1.532       .  S
C335        C595   1.468       .  S
C336        C340   1.533       .  S
C336        C338   1.541       .  S
C336        H342   1.110       .  S
C337        H343   1.086       .  S
C337        C338   1.368       .  D
C338        C582   1.486       .  S
C339        H344   1.086       .  S
C339        C340   1.365       .  D
C340        C605   1.481       .  S
C345        C346   1.540       .  S
C345        C351   1.541       .  S
C345        C349   1.535       .  S
C345        C565   1.540       .  S
C346        H353   1.083       .  S
C346        C347   1.361       .  D
C347        C348   1.539       .  S
C347        C552   1.471       .  S
C348        C352   1.541       .  S
C348        C350   1.546       .  S
C348        H354   1.108       .  S
C349        H355   1.085       .  S
C349        C350   1.372       .  D
C350        C542   1.498       .  S
C351        H356   1.085       .  S
C351        C352   1.367       .  D
C352        C535   1.494       .  S
C357        C358   1.529       .  S
C357        C363   1.539       .  S
C357        C361   1.542       .  S
C357        C512   1.537       .  S
C358        H365   1.086       .  S
C358        C359   1.365       .  D
C359        C360   1.546       .  S
C359        C522   1.484       .  S
C360        C364   1.545       .  S
C360        C362   1.543       .  S
C360        H366   1.110       .  S
C361        H367   1.082       .  S
C361        C362   1.365       .  D
C362        C502   1.483       .  S
C363        H368   1.086       .  S
C363        C364   1.368       .  D
C364        C532   1.494       .  S
Zr369       O370   2.438       .  S
Zr369       O371   2.428   1_556  S
Zr369      O1015   2.426   1_455  S
Zr369      O1018   2.385   1_456  S
Zr369      O1020   2.399   1_455  S
O370        H426   0.990       .  S
O370        H434   0.990       .  S
O371        C391   1.284       .  A
O372        C393   1.287       .  A
O373       Zr383   2.432       .  S
O373        C392   1.286       .  A
O374       Zr382   2.439   1_556  S
O374        C393   1.286       .  A
O375      Zr1009   2.432       .  S
O375        C392   1.285       .  A
O376       Zr384   2.429   1_455  S
O376        C391   1.284       .  A
O377       Zr382   2.395       .  S
O378      Zr1009   2.383   1_554  S
O378       Zr383   2.386   1_554  S
O378      Zr1024   2.370       .  S
O378        H413   0.967       .  S
O379       Zr382   2.398   1_556  S
O379      Zr1039   2.397   1_455  S
O379        H416   0.966       .  S
O380      Zr1009   2.401       .  S
O380       Zr383   2.389       .  S
Zr381       O406   2.442       .  S
Zr381       O400   2.421   1_554  S
Zr381      O1036   2.438       .  S
Zr381      O1028   2.401       .  S
Zr381       O389   2.380   1_554  S
Zr381       O390   2.384   1_554  S
Zr382       O401   2.438   1_554  S
Zr382       O394   2.434       .  S
Zr382       O395   2.437       .  S
Zr382       O388   2.399       .  S
Zr382      O1029   2.387   1_554  S
Zr383       O385   2.435       .  S
Zr383       O407   2.436   1_556  S
Zr383       O409   2.427   1_556  S
Zr383       O387   2.394   1_556  S
Zr384      O1050   2.436       .  S
Zr384       O731   2.436       .  S
Zr384      O1018   2.367       .  S
Zr384      O1027   2.396       .  S
O385        H422   0.990       .  S
O386        H417   0.990       .  S
O386        H431   0.990       .  S
O387      Zr1024   2.392       .  S
O388      Zr1021   2.402   1_455  S
O388        H414   0.967       .  S
O389      Zr1022   2.390   1_556  S
O389       Zr399   2.376       .  S
O390       Zr399   2.372       .  S
C391        C562   1.486       .  S
C392        C625   1.481       .  S
C393        C632   1.495       .  S
O394        H430   0.990       .  S
O395        C397   1.286       .  A
O396      Zr1021   2.434   1_455  S
O396        C397   1.285       .  A
C397        C545   1.496       .  S
O398       Zr399   2.440       .  S
O398        H427   0.991       .  S
Zr399      O1042   2.437       .  S
Zr399       O404   2.428       .  S
Zr399      O1019   2.399       .  S
O400        C405   1.282       .  A
O401        H418   0.990       .  S
O401        H433   0.990       .  S
O402      Zr1039   2.437   1_455  S
O402       H1059   0.990       .  S
O403        H432   0.990       .  S
O404        C405   1.284       .  A
C405        C615   1.472       .  S
O406        H425   0.990       .  S
O406        H429   0.990       .  S
O407        H421   0.990       .  S
O407        H428   0.990       .  S
O408        C412   1.286       .  A
O409        C412   1.285       .  A
O410      Zr1024   2.438       .  S
O410        H420   0.990       .  S
O411       Zr704   2.436       .  S
O411       H1064   0.990       .  S
C412        C555   1.480       .  S
H419       O1042   0.990       .  S
H424       O1051   0.990       .  S
Zr435       O436   2.438       .  S
Zr435       O437   2.436       .  S
Zr435      O1078   2.425   1_455  S
Zr435      O1083   2.378   1_455  S
Zr435      O1085   2.405   1_455  S
O436        H492   0.990       .  S
O436        H500   0.990       .  S
O437        C457   1.285       .  A
O438      Zr1075   2.416       .  S
O438        C459   1.282       .  A
O439       Zr449   2.419       .  S
O439        C458   1.283       .  A
O440       Zr448   2.430       .  S
O440        C459   1.285       .  A
O441        C458   1.285       .  A
O442       Zr450   2.433       .  S
O442        C457   1.285       .  A
O443      Zr1075   2.381       .  S
O443       Zr448   2.385       .  S
O443      Zr1090   2.369       .  S
O444       Zr449   2.383       .  S
O444        H479   0.968       .  S
O445      Zr1075   2.405       .  S
O445       Zr448   2.395       .  S
O445        H482   0.965       .  S
O446       Zr449   2.385       .  S
O446      Zr1105   2.396   1_455  S
Zr447       O472   2.442       .  S
Zr447       O466   2.424       .  S
Zr447      O1114   2.442       .  S
Zr447      O1093   2.399       .  S
Zr447       O456   2.379       .  S
Zr448       O467   2.436       .  S
Zr448       O460   2.435       .  S
Zr448       O461   2.434       .  S
Zr448       O454   2.393       .  S
Zr448       O455   2.389       .  S
Zr449       O451   2.436       .  S
Zr449       O473   2.434       .  S
Zr449       O475   2.428       .  S
Zr449       O453   2.391       .  S
Zr449      O1096   2.380       .  S
Zr450       O797   2.435   1_465  S
Zr450      O1092   2.436   1_455  S
Zr450      O1083   2.373   1_455  S
Zr450      O1094   2.395   1_455  S
O451        H488   0.990       .  S
O452      Zr1090   2.439       .  S
O452        H483   0.990       .  S
O452        H497   0.990       .  S
O453      Zr1087   2.401   1_455  S
O454      Zr1090   2.394       .  S
O454        H480   0.968       .  S
O456      Zr1089   2.382       .  S
O456       Zr465   2.372       .  S
O456       H1121   0.966       .  S
C457        C515   1.487       .  S
C458        C592   1.477       .  S
C459        C585   1.485       .  S
O460        H496   0.990       .  S
O461        C463   1.285       .  A
O462        C463   1.285       .  A
C463        C505   1.475       .  S
O464       Zr465   2.439       .  S
O464        H493   0.990       .  S
Zr465      O1109   2.439       .  S
Zr465       O470   2.421       .  S
Zr465      O1086   2.395       .  S
O466        C471   1.284       .  A
O467        H484   0.990       .  S
O467        H499   0.990       .  S
O469      Zr1105   2.440   1_455  S
O469       H1129   0.990       .  S
O469        H498   0.990       .  S
O470        C471   1.283       .  A
C471        C575   1.475       .  S
O472        H491   0.990       .  S
O472        H495   0.990       .  S
O473        H487   0.990       .  S
O473        H494   0.990       .  S
O474      Zr1087   2.431   1_455  S
O474        C478   1.285       .  A
O475        C478   1.285       .  A
O476        H486   0.990       .  S
O477       Zr770   2.435       .  S
C478        C525   1.492       .  S
H481       O1096   0.966       .  S
H489       O1109   0.990       .  S
C501        C502   1.405       .  A
C501        C506   1.404       .  A
C501        F508   1.357       .  S
C502        C503   1.407       .  A
C503        C504   1.398       .  A
C503        F510   1.358       .  S
C504        C505   1.403       .  A
C504        F509   1.358       .  S
C505        C506   1.407       .  A
C506        F507   1.358       .  S
C511        C512   1.413       .  A
C511        C516   1.398       .  A
C511        F518   1.358       .  S
C512        C513   1.417       .  A
C513        C514   1.402       .  A
C513        F520   1.356       .  S
C514        C515   1.407       .  A
C514        F519   1.358       .  S
C515        C516   1.406       .  A
C516        F517   1.358       .  S
C521        C522   1.406       .  A
C521        C526   1.399       .  A
C521        F528   1.358       .  S
C522        C523   1.403       .  A
C523        C524   1.398       .  A
C523        F530   1.357       .  S
C524        C525   1.414       .  A
C524        F529   1.358       .  S
C525        C526   1.413       .  A
C526       F1167   1.358   1_455  S
F527       C1166   1.358       .  S
C531        C532   1.407       .  A
C531        C536   1.397       .  A
C531        F538   1.358       .  S
C532        C533   1.409       .  A
C533        C534   1.409       .  A
C533        F540   1.357       .  S
C534        C535   1.409       .  A
C534        F539   1.358       .  S
C535        C536   1.407       .  A
C536        F537   1.358       .  S
C541        C542   1.410       .  A
C541        C546   1.401       .  A
C541        F548   1.358       .  S
C542        C543   1.410       .  A
C543        C544   1.400       .  A
C543        F550   1.356       .  S
C544        C545   1.411       .  A
C544        F549   1.358       .  S
C545        C546   1.412       .  A
C546        F547   1.358   1_455  S
C551        C552   1.399       .  A
C551        C556   1.399       .  A
C551        F558   1.358       .  S
C552        C553   1.403       .  A
C553        C554   1.399       .  A
C553        F560   1.358       .  S
C554        C555   1.409       .  A
C554        F559   1.358       .  S
C555        C556   1.409       .  A
C556        F557   1.357       .  S
C561        C562   1.405       .  A
C561        C566   1.397       .  A
C561       F1208   1.358       .  S
C562        C563   1.406       .  A
C563        C564   1.401       .  A
C564        C565   1.418       .  A
C564        F569   1.356       .  S
C565        C566   1.415       .  A
C566        F567   1.357       .  S
F568       C1201   1.358       .  S
C571        C572   1.415       .  A
C571        C576   1.395       .  A
C571        F578   1.358       .  S
C572        C573   1.418       .  A
C573        C574   1.398       .  A
C573        F580   1.354       .  S
C574        C575   1.403       .  A
C574        F579   1.359       .  S
C575        C576   1.403       .  A
C576        F577   1.358       .  S
C581        C582   1.408       .  A
C581        C586   1.398       .  A
C581        F588   1.358       .  S
C582        C583   1.406       .  A
C583        C584   1.394       .  A
C583        F590   1.355       .  S
C584        C585   1.409       .  A
C584        F589   1.358       .  S
C585        C586   1.412       .  A
C586        F587   1.358       .  S
C591        C592   1.409       .  A
C591        C596   1.394       .  A
C591        F598   1.358       .  S
C592        C593   1.409       .  A
C593        C594   1.400       .  A
C593        F600   1.358       .  S
C594        C595   1.402       .  A
C594        F599   1.358       .  S
C595        C596   1.400       .  A
C596        F597   1.358       .  S
C601        C602   1.404       .  A
C601        C606   1.392       .  A
C601        F608   1.358       .  S
C602        C603   1.406       .  A
C603        C604   1.404       .  A
C603        F610   1.357       .  S
C604        C605   1.407       .  A
C604        F609   1.358       .  S
C605        C606   1.405       .  A
C606        F607   1.358       .  S
C611        C612   1.416       .  A
C611        C616   1.396       .  A
C611        F618   1.358       .  S
C612        C613   1.417       .  A
C613        C614   1.398       .  A
C613        F620   1.355       .  S
C614        C615   1.402       .  A
C614        F619   1.358       .  S
C615        C616   1.401       .  A
C616        F617   1.358       .  S
C621        C622   1.400       .  A
C621        C626   1.393       .  A
C621        F628   1.357       .  S
C622        C623   1.404       .  A
C623        C624   1.403       .  A
C623        F630   1.358       .  S
C624        C625   1.411       .  A
C624        F629   1.358       .  S
C625        C626   1.408       .  A
C626        F627   1.358       .  S
C631        C632   1.411       .  A
C631        C636   1.402       .  A
C631        F638   1.358       .  S
C632        C633   1.410       .  A
C633        C634   1.401       .  A
C633        F640   1.358       .  S
C634        C635   1.411       .  A
C634        F639   1.358       .  S
C635        C636   1.409       .  A
C636        F637   1.355       .  S
C641        C642   1.540       .  S
C641        C647   1.537       .  S
C641        C645   1.535       .  S
C641        C932   1.532       .  S
C642        H649   1.083       .  S
C642        C643   1.363       .  D
C643        C644   1.540       .  S
C643        C942   1.471       .  S
C644        C648   1.539       .  S
C644        C646   1.543       .  S
C644        H650   1.109       .  S
C645        H651   1.086       .  S
C645        C646   1.370       .  D
C646        C955   1.496       .  S
C647        H652   1.086       .  S
C647        C648   1.361       .  D
C648        C922   1.481       .  S
C653        C654   1.542       .  S
C653        C659   1.539       .  S
C653        C657   1.532       .  S
C653        C892   1.532       .  S
C654        H661   1.082       .  S
C654        C655   1.362       .  D
C655        C656   1.530       .  S
C655        C915   1.461       .  S
C656        C660   1.534       .  S
C656        C658   1.541       .  S
C656        H662   1.110       .  S
C657        H663   1.086       .  S
C657        C658   1.368       .  D
C658        C902   1.488       .  S
C659        H664   1.086       .  S
C659        C660   1.366       .  D
C660        C925   1.481       .  S
C665        C666   1.544       .  S
C665        C671   1.541       .  S
C665        C669   1.533       .  S
C665        C885   1.540       .  S
C666        H673   1.084       .  S
C666        C667   1.363       .  D
C667        C668   1.540       .  S
C667        C872   1.478       .  S
C668        C672   1.542       .  S
C668        C670   1.547       .  S
C668        H674   1.108       .  S
C669        H675   1.085       .  S
C669        C670   1.371       .  D
C670        C862   1.500       .  S
C671        H676   1.085       .  S
C671        C672   1.368       .  D
C672        C855   1.494       .  S
C677        C678   1.530       .  S
C677        C683   1.537       .  S
C677        C681   1.542       .  S
C677        C832   1.535       .  S
C678        H685   1.086       .  S
C678        C679   1.366       .  D
C679        C680   1.545       .  S
C679        C842   1.486       .  S
C680        C684   1.546       .  S
C680        C682   1.541       .  S
C680        H686   1.110       .  S
C681        H687   1.082       .  S
C681        C682   1.365       .  D
C682        C822   1.479       .  S
C683        H688   1.086       .  S
C683        C684   1.366       .  D
C684        C852   1.493       .  S
Zr689       O690   2.438       .  S
Zr689       O691   2.428   1_556  S
Zr689      O1012   2.433       .  S
Zr689      O1017   2.379   1_556  S
Zr689      O1019   2.402       .  S
O690        H746   0.990       .  S
O690        H754   0.990       .  S
O691        C711   1.284       .  A
O692      Zr1009   2.433   1_545  S
O692        C713   1.284       .  A
O693       Zr703   2.427       .  S
O693        C712   1.285       .  A
O694       Zr702   2.440   1_556  S
O694        C713   1.287       .  A
O695        C712   1.286       .  A
O696       Zr704   2.427       .  S
O696        C711   1.283       .  A
O697      Zr1009   2.381   1_544  S
O697       Zr702   2.391       .  S
O697      Zr1024   2.378   1_545  S
O698       Zr703   2.390   1_554  S
O698        H733   0.967       .  S
O699      Zr1009   2.402   1_545  S
O699       Zr702   2.397   1_556  S
O699        H736   0.966       .  S
O700       Zr703   2.388       .  S
O700      Zr1039   2.397       .  S
Zr701       O726   2.445       .  S
Zr701       O720   2.429   1_554  S
Zr701      O1048   2.434   1_545  S
Zr701      O1027   2.402   1_545  S
Zr701       O709   2.379   1_654  S
Zr701       O710   2.382   1_544  S
Zr702       O721   2.436   1_554  S
Zr702       O714   2.435       .  S
Zr702       O715   2.440       .  S
Zr702       O708   2.399       .  S
Zr703       O705   2.434       .  S
Zr703       O727   2.436   1_556  S
Zr703       O729   2.437   1_556  S
Zr703       O707   2.391   1_556  S
Zr703      O1030   2.378       .  S
Zr704      O1026   2.435       .  S
Zr704      O1017   2.378       .  S
Zr704      O1028   2.399       .  S
O705        H742   0.990       .  S
O706      Zr1024   2.436   1_545  S
O706        H737   0.990       .  S
O706        H751   0.990       .  S
O707      Zr1021   2.398       .  S
O708      Zr1024   2.400   1_545  S
O708        H734   0.967       .  S
O709       Zr719   2.379   1_455  S
O710      Zr1023   2.381       .  S
O710       Zr719   2.374   1_565  S
O710       H1055   0.966       .  S
C711        C882   1.486       .  S
C712        C945   1.481       .  S
C713        C952   1.493       .  S
O714        H750   0.990       .  S
O715        C717   1.287       .  A
O716        C717   1.286       .  A
C717        C865   1.500       .  S
O718       Zr719   2.439       .  S
O718        H747   0.990       .  S
Zr719      O1043   2.439   1_545  S
Zr719       O724   2.418       .  S
Zr719      O1020   2.390   1_545  S
O720        C725   1.284       .  A
O721        H738   0.990       .  S
O721        H753   0.990       .  S
O723      Zr1039   2.439       .  S
O723       H1063   0.990       .  S
O723        H752   0.990       .  S
O724        C725   1.282       .  A
C725        C935   1.473       .  S
O726        H745   0.990       .  S
O726        H749   0.990       .  S
O727        H741   0.990       .  S
O727        H748   0.990       .  S
O728      Zr1021   2.435       .  S
O728        C732   1.285       .  A
O729        C732   1.286       .  A
O730        H740   0.990       .  S
C732        C875   1.486       .  S
H735       O1030   0.966       .  S
H743       O1043   0.990       .  S
Zr755       O756   2.438       .  S
Zr755       O757   2.418       .  S
Zr755      O1081   2.418       .  S
Zr755      O1084   2.380       .  S
Zr755      O1086   2.396       .  S
O756        H812   0.990       .  S
O756        H820   0.990       .  S
O757        C777   1.282       .  A
O758        C779   1.283       .  A
O759       Zr769   2.410       .  S
O759        C778   1.281       .  A
O760       Zr768   2.427       .  S
O760        C779   1.284       .  A
O761      Zr1075   2.427   1_545  S
O761        C778   1.284       .  A
O762       Zr770   2.429       .  S
O762        C777   1.284       .  A
O763       Zr768   2.387       .  S
O764      Zr1075   2.375   1_545  S
O764       Zr769   2.384       .  S
O764      Zr1090   2.374   1_545  S
O764        H799   0.968       .  S
O765       Zr768   2.394       .  S
O765      Zr1105   2.396       .  S
O765        H802   0.965       .  S
O766      Zr1075   2.395   1_545  S
O766       Zr769   2.388       .  S
Zr767       O792   2.441       .  S
Zr767       O786   2.425       .  S
Zr767      O1102   2.437   1_545  S
Zr767      O1094   2.401   1_545  S
Zr767      O1095   2.383       .  S
Zr767       O776   2.381   1_655  S
Zr768       O787   2.437       .  S
Zr768       O780   2.435       .  S
Zr768       O781   2.428       .  S
Zr768       O774   2.392       .  S
Zr768       O775   2.384       .  S
Zr769       O771   2.437       .  S
Zr769       O793   2.435       .  S
Zr769       O795   2.417       .  S
Zr769       O773   2.394       .  S
Zr770      O1116   2.434       .  S
Zr770      O1084   2.372       .  S
Zr770      O1093   2.398       .  S
O771        H808   0.990       .  S
O772        H803   0.990       .  S
O772        H817   0.990       .  S
O773      Zr1090   2.401   1_545  S
O774      Zr1087   2.397       .  S
O774        H800   0.968       .  S
O775      Zr1087   2.381       .  S
O775      Zr1105   2.374       .  S
O776       Zr785   2.371   1_455  S
C777        C835   1.480       .  S
C778        C912   1.471       .  S
C779        C905   1.487       .  S
O780        H816   0.990       .  S
O781        C783   1.284       .  A
O782      Zr1087   2.435       .  S
O782        C783   1.285       .  A
C783        C825   1.473       .  S
O784       Zr785   2.440       .  S
O784        H813   0.990       .  S
Zr785      O1108   2.439   1_545  S
Zr785       O790   2.428       .  S
Zr785      O1085   2.396   1_545  S
Zr785      O1095   2.376       .  S
O786        C791   1.284       .  A
O787        H804   0.990       .  S
O787        H819   0.990       .  S
O788      Zr1105   2.437       .  S
O788       H1125   0.990       .  S
O789        H818   0.990       .  S
O790        C791   1.284       .  A
C791        C895   1.478       .  S
O792        H811   0.990       .  S
O792        H815   0.990       .  S
O793        H807   0.990       .  S
O793        H814   0.990       .  S
O794        C798   1.287       .  A
O795        C798   1.281       .  A
O796      Zr1090   2.436   1_545  S
O796        H806   0.990       .  S
O797       H1130   0.990       .  S
C798        C845   1.492       .  S
H805       O1108   0.990   1_545  S
H810       O1117   0.989       .  S
C821        C822   1.403       .  A
C821        C826   1.402       .  A
C821        F828   1.357       .  S
C822        C823   1.406       .  A
C823        C824   1.397       .  A
C823        F830   1.358       .  S
C824        C825   1.404       .  A
C824        F829   1.358       .  S
C825        C826   1.407       .  A
C826        F827   1.358       .  S
C831        C832   1.415       .  A
C831        C836   1.396       .  A
C831        F838   1.358       .  S
C832        C833   1.416       .  A
C833        C834   1.399       .  A
C833        F840   1.355       .  S
C834        C835   1.406       .  A
C834        F839   1.358       .  S
C835        C836   1.404       .  A
C836        F837   1.358       .  S
C841        C842   1.405       .  A
C841        C846   1.397       .  A
C841        F848   1.358       .  S
C842        C843   1.405       .  A
C843        C844   1.401       .  A
C843        F850   1.357       .  S
C844        C845   1.416       .  A
C844        F849   1.358       .  S
C845        C846   1.411       .  A
C851        C852   1.408       .  A
C851        C856   1.397       .  A
C851        F858   1.358       .  S
C852        C853   1.408       .  A
C853        C854   1.409       .  A
C853        F860   1.357       .  S
C854        C855   1.410       .  A
C854        F859   1.357       .  S
C855        C856   1.407       .  A
C856        F857   1.358       .  S
C861        C862   1.410       .  A
C861        C866   1.401       .  A
C861        F868   1.358       .  S
C862        C863   1.409       .  A
C863        C864   1.402       .  A
C863        F870   1.356       .  S
C864        C865   1.413       .  A
C864        F869   1.358       .  S
C865        C866   1.412       .  A
C866        F867   1.358       .  S
C871        C872   1.401       .  A
C871        C876   1.401       .  A
C871        F878   1.358       .  S
C872        C873   1.404       .  A
C873        C874   1.401       .  A
C873        F880   1.358       .  S
C874        C875   1.409       .  A
C874        F879   1.358       .  S
C875        C876   1.411       .  A
C876        F877   1.357       .  S
C881        C882   1.406       .  A
C881        C886   1.399       .  A
C882        C883   1.406       .  A
C883        C884   1.400       .  A
C883       F1210   1.358   1_554  S
C884        C885   1.417       .  A
C884        F889   1.356       .  S
C885        C886   1.416       .  A
C886        F887   1.357       .  S
F890       C1203   1.358   1_556  S
C891        C892   1.414       .  A
C891        C896   1.395       .  A
C891        F898   1.358       .  S
C892        C893   1.416       .  A
C893        C894   1.399       .  A
C893        F900   1.355       .  S
C894        C895   1.405       .  A
C894        F899   1.358       .  S
C895        C896   1.404       .  A
C896        F897   1.358       .  S
C901        C902   1.408       .  A
C901        C906   1.397       .  A
C901        F908   1.358       .  S
C902        C903   1.407       .  A
C903        C904   1.396       .  A
C903        F910   1.356       .  S
C904        C905   1.411       .  A
C904        F909   1.358       .  S
C905        C906   1.411       .  A
C906        F907   1.358       .  S
C911        C912   1.408       .  A
C911        C916   1.392       .  A
C911        F918   1.358       .  S
C912        C913   1.408       .  A
C913        C914   1.397       .  A
C913        F920   1.358       .  S
C914        C915   1.400       .  A
C914        F919   1.358       .  S
C915        C916   1.399       .  A
C916        F917   1.358       .  S
C921        C922   1.407       .  A
C921        C926   1.395       .  A
C921        F928   1.359       .  S
C922        C923   1.405       .  A
C923        C924   1.403       .  A
C923        F930   1.356       .  S
C924        C925   1.406       .  A
C924        F929   1.357       .  S
C925        C926   1.405       .  A
C926        F927   1.359       .  S
C931        C932   1.416       .  A
C931        C936   1.394       .  A
C931        F938   1.358       .  S
C932        C933   1.416       .  A
C933        C934   1.399       .  A
C933        F940   1.356       .  S
C934        C935   1.402       .  A
C934        F939   1.358       .  S
C935        C936   1.402       .  A
C936        F937   1.359       .  S
C941        C942   1.400       .  A
C941        C946   1.394       .  A
C941        F948   1.358       .  S
C942        C943   1.402       .  A
C943        C944   1.402       .  A
C943        F950   1.358       .  S
C944        C945   1.410       .  A
C944        F949   1.358       .  S
C945        C946   1.409       .  A
C946        F947   1.358       .  S
C951        C952   1.410       .  A
C951        C956   1.401       .  A
C951        F958   1.358       .  S
C952        C953   1.411       .  A
C953        C954   1.399       .  A
C953        F960   1.357       .  S
C954        C955   1.409       .  A
C954        F959   1.358       .  S
C955        C956   1.410       .  A
C956        F957   1.355       .  S
C961        C962   1.540       .  S
C961        C967   1.537       .  S
C961        C965   1.535       .  S
C961       C1252   1.533       .  S
C962        H969   1.082       .  S
C962        C963   1.361       .  D
C963        C964   1.540       .  S
C963       C1262   1.472       .  S
C964        C968   1.537       .  S
C964        C966   1.544       .  S
C964        H970   1.109       .  S
C965        H971   1.086       .  S
C965        C966   1.369       .  D
C966       C1275   1.494       .  S
C967        H972   1.086       .  S
C967        C968   1.364       .  D
C968       C1242   1.481       .  S
C973        C974   1.540       .  S
C973        C979   1.537       .  S
C973        C977   1.530       .  S
C973       C1212   1.529       .  S
C974        H981   1.082       .  S
C974        C975   1.361       .  D
C975        C976   1.534       .  S
C975       C1235   1.463       .  S
C976        C980   1.537       .  S
C976        C978   1.543       .  S
C976        H982   1.110       .  S
C977        H983   1.086       .  S
C977        C978   1.368       .  D
C978       C1222   1.489       .  S
C979        H984   1.086       .  S
C979        C980   1.364       .  D
C980       C1245   1.482       .  S
C985        C986   1.541       .  S
C985        C991   1.540       .  S
C985        C989   1.532       .  S
C985       C1205   1.535       .  S
C986        H993   1.084       .  S
C986        C987   1.363       .  D
C987        C988   1.538       .  S
C987       C1192   1.473       .  S
C988        C992   1.538       .  S
C988        C990   1.547       .  S
C988        H994   1.109       .  S
C989        H995   1.086       .  S
C989        C990   1.369       .  D
C990       C1182   1.495       .  S
C991        H996   1.085       .  S
C991        C992   1.367       .  D
C992       C1175   1.490       .  S
C997        C998   1.534       .  S
C997       C1003   1.539       .  S
C997       C1001   1.542       .  S
C997       C1152   1.540       .  S
C998       H1005   1.086       .  S
C998        C999   1.367       .  D
C999       C1000   1.542       .  S
C999       C1162   1.485       .  S
C1000      C1004   1.543       .  S
C1000      C1002   1.537       .  S
C1000      H1006   1.111       .  S
C1001      H1007   1.081       .  S
C1001      C1002   1.364       .  D
C1002      C1142   1.477       .  S
C1003      H1008   1.086       .  S
C1003      C1004   1.369       .  D
C1004      C1172   1.492       .  S
Zr1009     O1010   2.440       .  S
Zr1009     O1011   2.426   1_556  S
O1010      H1066   0.990       .  S
O1010      H1074   0.990       .  S
O1011      C1031   1.283       .  A
O1012      C1033   1.284       .  A
O1013     Zr1023   2.432       .  S
O1013      C1032   1.286       .  A
O1014     Zr1022   2.445   1_556  S
O1014      C1033   1.287       .  A
O1015      C1032   1.284       .  A
O1016     Zr1024   2.428       .  S
O1016      C1031   1.284       .  A
O1017     Zr1022   2.390       .  S
O1018     Zr1023   2.388   1_554  S
O1018      H1053   0.967       .  S
O1019     Zr1022   2.399   1_556  S
O1019      H1056   0.966       .  S
O1020     Zr1023   2.390       .  S
Zr1021     O1046   2.444       .  S
Zr1021     O1040   2.425   1_554  S
Zr1021     O1029   2.380   1_654  S
Zr1021     O1030   2.385   1_554  S
Zr1022     O1041   2.438   1_554  S
Zr1022     O1034   2.435       .  S
Zr1022     O1035   2.441       .  S
Zr1022     O1028   2.398       .  S
Zr1023     O1025   2.435       .  S
Zr1023     O1047   2.436   1_556  S
Zr1023     O1049   2.437   1_556  S
Zr1023     O1027   2.393   1_556  S
O1025      H1062   0.990       .  S
O1026      H1057   0.990       .  S
O1026      H1071   0.990       .  S
O1028      H1054   0.967       .  S
O1029     Zr1039   2.375   1_455  S
O1030     Zr1039   2.377       .  S
C1031      C1202   1.486       .  S
C1032      C1265   1.477       .  S
C1033      C1272   1.496       .  S
O1034      H1070   0.990       .  S
O1035      C1037   1.287       .  A
O1036      C1037   1.286       .  A
C1037      C1185   1.499       .  S
O1038     Zr1039   2.441       .  S
O1038      H1067   0.990       .  S
Zr1039     O1044   2.432       .  S
O1040      C1045   1.283       .  A
O1041      H1058   0.990       .  S
O1041      H1073   0.990       .  S
O1043      H1072   0.990       .  S
O1044      C1045   1.284       .  A
C1045      C1255   1.475       .  S
O1046      H1065   0.990       .  S
O1046      H1069   0.990       .  S
O1047      H1061   0.990       .  S
O1047      H1068   0.990       .  S
O1048      C1052   1.285       .  A
O1049      C1052   1.286       .  A
O1050      H1060   0.990       .  S
C1052      C1195   1.478       .  S
Zr1075     O1076   2.439       .  S
Zr1075     O1077   2.435       .  S
O1076      H1132   0.990       .  S
O1076      H1140   0.990       .  S
O1077      C1097   1.285       .  A
O1078      C1099   1.284       .  A
O1079     Zr1089   2.419       .  S
O1079      C1098   1.283       .  A
O1080     Zr1088   2.425       .  S
O1080      C1099   1.284       .  A
O1081      C1098   1.282       .  A
O1082     Zr1090   2.426       .  S
O1082      C1097   1.283       .  A
O1083     Zr1088   2.387       .  S
O1084     Zr1089   2.383       .  S
O1084      H1119   0.968       .  S
O1085     Zr1088   2.395       .  S
O1085      H1122   0.965       .  S
O1086     Zr1089   2.390       .  S
Zr1087     O1112   2.441       .  S
Zr1087     O1106   2.420       .  S
Zr1087     O1096   2.382   1_655  S
Zr1088     O1107   2.435       .  S
Zr1088     O1100   2.435       .  S
Zr1088     O1101   2.432       .  S
Zr1088     O1094   2.390       .  S
Zr1088     O1095   2.385   1_565  S
Zr1089     O1091   2.436       .  S
Zr1089     O1113   2.435       .  S
Zr1089     O1115   2.425       .  S
Zr1089     O1093   2.392       .  S
O1091      H1128   0.990       .  S
O1092      H1123   0.990       .  S
O1092      H1137   0.990       .  S
O1094      H1120   0.968       .  S
O1096     Zr1105   2.372   1_455  S
C1097      C1155   1.484       .  S
C1098      C1232   1.471       .  S
C1099      C1225   1.486       .  S
O1100      H1136   0.990       .  S
O1101      C1103   1.285       .  A
O1102      C1103   1.285       .  A
C1103      C1145   1.475       .  S
O1104     Zr1105   2.440       .  S
O1104      H1133   0.990       .  S
Zr1105     O1110   2.427       .  S
O1106      C1111   1.282       .  A
O1107      H1124   0.990       .  S
O1107      H1139   0.990       .  S
O1109      H1138   0.990       .  S
O1110      C1111   1.284       .  A
C1111      C1215   1.475       .  S
O1112      H1131   0.990       .  S
O1112      H1135   0.990       .  S
O1113      H1127   0.990       .  S
O1113      H1134   0.990       .  S
O1114      C1118   1.287       .  A
O1115      C1118   1.284       .  A
O1116      H1126   0.990       .  S
C1118      C1165   1.496       .  S
C1141      C1142   1.403       .  A
C1141      C1146   1.403       .  A
C1141      F1148   1.358       .  S
C1142      C1143   1.405       .  A
C1143      C1144   1.397       .  A
C1143      F1150   1.358       .  S
C1144      C1145   1.404       .  A
C1144      F1149   1.358       .  S
C1145      C1146   1.408       .  A
C1146      F1147   1.358       .  S
C1151      C1152   1.415       .  A
C1151      C1156   1.398       .  A
C1151      F1158   1.358       .  S
C1152      C1153   1.420       .  A
C1153      C1154   1.402       .  A
C1153      F1160   1.354       .  S
C1154      C1155   1.404       .  A
C1154      F1159   1.358       .  S
C1155      C1156   1.405       .  A
C1156      F1157   1.358       .  S
C1161      C1162   1.404       .  A
C1161      C1166   1.400       .  A
C1161      F1168   1.358       .  S
C1162      C1163   1.404       .  A
C1163      C1164   1.400       .  A
C1163      F1170   1.357       .  S
C1164      C1165   1.415       .  A
C1164      F1169   1.358       .  S
C1165      C1166   1.413       .  A
C1171      C1172   1.407       .  A
C1171      C1176   1.395       .  A
C1171      F1178   1.358       .  S
C1172      C1173   1.409       .  A
C1173      C1174   1.408       .  A
C1173      F1180   1.357       .  S
C1174      C1175   1.409       .  A
C1174      F1179   1.358       .  S
C1175      C1176   1.405       .  A
C1176      F1177   1.358       .  S
C1181      C1182   1.409       .  A
C1181      C1186   1.401       .  A
C1181      F1188   1.358       .  S
C1182      C1183   1.407       .  A
C1183      C1184   1.400       .  A
C1183      F1190   1.356       .  S
C1184      C1185   1.413       .  A
C1184      F1189   1.357       .  S
C1185      C1186   1.413       .  A
C1186      F1187   1.358       .  S
C1191      C1192   1.401       .  A
C1191      C1196   1.401       .  A
C1191      F1198   1.358       .  S
C1192      C1193   1.403       .  A
C1193      C1194   1.399       .  A
C1193      F1200   1.358       .  S
C1194      C1195   1.407       .  A
C1194      F1199   1.358   1_554  S
C1195      C1196   1.409       .  A
C1196      F1197   1.357       .  S
C1201      C1202   1.407       .  A
C1201      C1206   1.397       .  A
C1202      C1203   1.407       .  A
C1203      C1204   1.400       .  A
C1204      C1205   1.416       .  A
C1204      F1209   1.356       .  S
C1205      C1206   1.414       .  A
C1206      F1207   1.357       .  S
C1211      C1212   1.414       .  A
C1211      C1216   1.393       .  A
C1211      F1218   1.358       .  S
C1212      C1213   1.416       .  A
C1213      C1214   1.398       .  A
C1213      F1220   1.355       .  S
C1214      C1215   1.405       .  A
C1214      F1219   1.358       .  S
C1215      C1216   1.403       .  A
C1216      F1217   1.358       .  S
C1221      C1222   1.408       .  A
C1221      C1226   1.396       .  A
C1221      F1228   1.358       .  S
C1222      C1223   1.407       .  A
C1223      C1224   1.397       .  A
C1223      F1230   1.356       .  S
C1224      C1225   1.410       .  A
C1224      F1229   1.358       .  S
C1225      C1226   1.410       .  A
C1226      F1227   1.358       .  S
C1231      C1232   1.407       .  A
C1231      C1236   1.392       .  A
C1231      F1238   1.358       .  S
C1232      C1233   1.409       .  A
C1233      C1234   1.398       .  A
C1233      F1240   1.358       .  S
C1234      C1235   1.401       .  A
C1234      F1239   1.358       .  S
C1235      C1236   1.399       .  A
C1236      F1237   1.358       .  S
C1241      C1242   1.405       .  A
C1241      C1246   1.394       .  A
C1241      F1248   1.359       .  S
C1242      C1243   1.405       .  A
C1243      C1244   1.403       .  A
C1243      F1250   1.356       .  S
C1244      C1245   1.406       .  A
C1244      F1249   1.357       .  S
C1245      C1246   1.407       .  A
C1246      F1247   1.358       .  S
C1251      C1252   1.415       .  A
C1251      C1256   1.396       .  A
C1251      F1258   1.358       .  S
C1252      C1253   1.417       .  A
C1253      C1254   1.399       .  A
C1253      F1260   1.355       .  S
C1254      C1255   1.403       .  A
C1254      F1259   1.358       .  S
C1255      C1256   1.402       .  A
C1256      F1257   1.358       .  S
C1261      C1262   1.400       .  A
C1261      C1266   1.394       .  A
C1261      F1268   1.358       .  S
C1262      C1263   1.404       .  A
C1263      C1264   1.403       .  A
C1263      F1270   1.358       .  S
C1264      C1265   1.410       .  A
C1264      F1269   1.358       .  S
C1265      C1266   1.406       .  A
C1266      F1267   1.358       .  S
C1271      C1272   1.411       .  A
C1271      C1276   1.400       .  A
C1271      F1278   1.357       .  S
C1272      C1273   1.413       .  A
C1273      C1274   1.401       .  A
C1273      F1280   1.358       .  S
C1274      C1275   1.409       .  A
C1274      F1279   1.358       .  S
C1275      C1276   1.407       .  A
C1276      F1277   1.356       .  S
