geometry optimzed in LAMMPS
_audit_creation_date              2020-11-30 
_audit_creation_method            'lammps2cif' 
_symmetry_space_group_name_H-M    'P1' 
_symmetry_Int_Tables_number       1 
_symmetry_cell_setting            triclinic 
loop_ 
_symmetry_equiv_pos_as_xyz 
  x,y,z 
_cell_length_a                    33.548957954270946 
_cell_length_b                    33.434887086331806 
_cell_length_c                    32.48705762125457 
_cell_angle_alpha                 89.36798853217525 
_cell_angle_beta                  89.6952987507953 
_cell_angle_gamma                 90.61243099505644 
loop_ 
_atom_site_label 
_atom_site_type_symbol 
_atom_site_fract_x 
_atom_site_fract_y 
_atom_site_fract_z 
_atom_site_charge 
N1          N  0.17068370  0.19185879  0.21255104    -0.06030
N2          N  0.14313872  0.17860470  0.18651643    -0.58150
N3          N  0.19803198  0.17061082  0.30846470    -0.05710
N4          N  0.18718466  0.14041865  0.33319040    -0.60280
N5          N  0.16930614  0.19743344  0.30697949    -0.05310
N6          N  0.13944972  0.18591145  0.33146737    -0.58130
N7          N  0.20036749  0.16609014  0.21406561    -0.04990
N8          N  0.19326513  0.13602908  0.18829371    -0.60630
C9          C  0.15780222  0.14443201  0.16987690     0.96150
C10         C  0.15108047  0.15070083  0.34878017     0.95920
N11         N  0.32460855  0.20731418  0.30775967    -0.06220
N12         N  0.35553319  0.20159374  0.33244636    -0.58730
N13         N  0.29828694  0.17221558  0.21476759    -0.04340
N14         N  0.30897538  0.14359274  0.18894863    -0.59980
N15         N  0.32402459  0.20219034  0.21222011    -0.06250
N16         N  0.35220385  0.19410691  0.18467726    -0.59000
N17         N  0.29800768  0.17824791  0.31239224    -0.03980
N18         N  0.31077080  0.15289276  0.34156305    -0.60070
Mn19       Mn  0.24885896  0.17139652  0.26278257     1.18440
C20         C  0.34706668  0.16767956  0.35417742     0.98230
C21         C  0.34226307  0.15763963  0.16912984     0.98890
N22         N  0.16291089  0.29719250  0.30150637    -0.06270
N23         N  0.13219148  0.30842608  0.32507678    -0.62570
N24         N  0.19181671  0.32232597  0.20549066    -0.05070
N25         N  0.18013741  0.35091079  0.17953184    -0.63250
N26         N  0.16498611  0.29297567  0.20666592    -0.05770
N27         N  0.13499103  0.30172796  0.18146733    -0.62840
N28         N  0.19019998  0.32610665  0.30004030    -0.04670
N29         N  0.17813554  0.35666491  0.32258092    -0.63530
Mn30       Mn  0.16677316  0.24474492  0.25685286     1.10660
C31         C  0.14218254  0.34560953  0.33906624     0.99450
C32         C  0.14446248  0.33810621  0.16440549     0.99530
N33         N  0.32027200  0.29942681  0.20775814    -0.05780
N34         N  0.35033767  0.30936370  0.18274013    -0.61150
N35         N  0.29009830  0.33046073  0.30110597    -0.05100
N36         N  0.30105643  0.36065906  0.32542570    -0.57880
N37         N  0.31755801  0.30247206  0.30224004    -0.06410
N38         N  0.34635486  0.31273893  0.32760944    -0.60720
N39         N  0.29165032  0.32618863  0.20534771    -0.05400
N40         N  0.30212620  0.35432524  0.17792321    -0.57910
Mn41       Mn  0.32118593  0.25277175  0.25722314     1.20190
Mn42       Mn  0.24103231  0.32655769  0.25297035     1.10090
Cl43       Cl  0.24399999  0.24890218  0.25734758    -0.85880
C44         C  0.33887738  0.34356322  0.16363076     0.96460
C45         C  0.33599241  0.34869490  0.34300704     0.96250
C46         C  0.36816777  0.37495351  0.36431534    -0.02400
C47         C  0.37947088  0.14522730  0.38087958    -0.02400
C48         C  0.11500593  0.37550494  0.36366915    -0.02400
C49         C  0.12229807  0.12298137  0.37423313    -0.02400
C50         C  0.46841649  0.00703067  0.31406115     0.00650
C51         C  0.01096671  0.00434583  0.31230611     0.00650
C52         C  0.36470295  0.36825594  0.13198443    -0.02400
C53         C  0.11912306  0.36153610  0.13163067    -0.02400
C54         C  0.48963271  0.31936181  0.47764121     0.00650
C55         C  0.49070317  0.31709465  0.02128503     0.00650
C56         C  0.13554711  0.11608575  0.13841011    -0.02400
C57         C  0.47275840  0.99873353  0.18356646     0.00650
C58         C  0.01447279  0.99171080  0.18163047     0.00650
C59         C  0.17601626  0.47017957  0.00410983     0.00650
C60         C  0.18141083  0.01283071  0.00346211     0.00650
C61         C  0.48141000  0.18864123  0.00993393     0.00650
C62         C  0.02246113  0.17626322  0.00985734     0.00650
C63         C  0.37042106  0.13330389  0.13999476    -0.02400
C64         C  0.33545412  0.48214874  0.00366797     0.00650
C65         C  0.32716633  0.02351929  0.00583178     0.00650
C66         C  0.33433045  0.04631806  0.04439592    -0.00070
C67         C  0.30386084  0.06631871  0.06583934    -0.11940
C68         C  0.31248939  0.09339931  0.09813036     0.02170
C69         C  0.35272592  0.09990143  0.11068441    -0.00150
C70         C  0.38215508  0.07827735  0.08858517    -0.11880
C71         C  0.37370663  0.05313016  0.05633242     0.02050
H72         H  0.27338818  0.06166249  0.05651065     0.15030
H73         H  0.41332533  0.08451425  0.09291086     0.15030
C74         C  0.40676151  0.03758713  0.03335346     0.36690
C75         C  0.28028921  0.11776031  0.11218645     0.36590
N76         N  0.43285528  0.02622597  0.01343537    -0.43660
N77         N  0.25427676  0.13800358  0.12204674    -0.43650
C78         C  0.45370558  0.17999230  0.04838849    -0.00070
C79         C  0.41685054  0.16099489  0.04006430    -0.11940
C80         C  0.38459010  0.16292517  0.06680880     0.02170
C81         C  0.39154290  0.16438431  0.10923739    -0.00150
C82         C  0.42507325  0.18754996  0.11941195    -0.11880
C83         C  0.45695105  0.19357537  0.09042611     0.02050
H84         H  0.41036888  0.14938804  0.01032852     0.15030
H85         H  0.43000294  0.19375855  0.15173671     0.15030
C86         C  0.49297813  0.20533898  0.11017364     0.36690
C87         C  0.34493045  0.16483674  0.05008469     0.36590
N88         N  0.51875034  0.21333517  0.13225906    -0.43660
N89         N  0.31323211  0.16777965  0.03665664    -0.43650
C90         C  0.45091327  0.03908524  0.18416213    -0.00070
C91         C  0.41173389  0.04165914  0.20009668    -0.11940
C92         C  0.38612489  0.07385338  0.19087269     0.02170
C93         C  0.40009019  0.10778251  0.16752633    -0.00150
C94         C  0.44135064  0.10716335  0.15821499    -0.11880
C95         C  0.46239512  0.07150645  0.15928550     0.02050
H96         H  0.39890341  0.01676323  0.21693155     0.15030
H97         H  0.45583147  0.12937957  0.13984682     0.15030
C98         C  0.49091377  0.06611296  0.12775192     0.36690
C99         C  0.34440661  0.06660113  0.19933445     0.36690
N100        N  0.51440071  0.05989670  0.10311036    -0.43660
N101        N  0.31117267  0.05896340  0.20571568    -0.43650
C102        C  0.04477389  0.16235560  0.04797406    -0.00070
C103        C  0.06802054  0.18961719  0.07053245    -0.11940
C104        C  0.09739476  0.17770256  0.09928322     0.02170
C105        C  0.10359886  0.13627882  0.10835885    -0.00150
C106        C  0.08176148  0.10944014  0.08314352    -0.11880
C107        C  0.05387269  0.12181174  0.05343764     0.02050
H108        H  0.06438270  0.22123989  0.06449515     0.15030
H109        H  0.08800389  0.07776185  0.08550827     0.15030
C110        C  0.03504451  0.09169481  0.02856256     0.36690
C111        C  0.12387484  0.20927931  0.11207896     0.36590
N112        N  0.01913948  0.06607481  0.01135719    -0.43660
N113        N  0.14496841  0.23557430  0.12033847    -0.43650
C114        C  0.16714947  0.09674524  0.10746987    -0.00070
C115        C  0.19026753  0.06218023  0.11396182    -0.11940
C116        C  0.19807219  0.03524840  0.08101611     0.02170
C117        C  0.18313902  0.04265569  0.04075076    -0.00150
C118        C  0.17307095  0.08378307  0.03446655    -0.11880
C119        C  0.17045646  0.11085668  0.06684333     0.02050
H120        H  0.20202978  0.05600046  0.14434153     0.15030
H121        H  0.17001735  0.09700070  0.00428041     0.15030
C122        C  0.18307465  0.15160127  0.05972217     0.36690
C123        C  0.22418275  0.00290653  0.08889833     0.36590
N124        N  0.19672598  0.18324591  0.05501341    -0.43660
N125        N  0.24424810  0.97618385  0.09657336    -0.43650
C126        C  0.10949460  0.08397468  0.16395560    -0.00070
C127        C  0.11777448  0.04265384  0.16524026    -0.11940
C128        C  0.08934454  0.01338239  0.17662227     0.02170
C129        C  0.04914881  0.02333457  0.18471555    -0.00150
C130        C  0.04438040  0.06380109  0.19457346    -0.11880
C131        C  0.07300803  0.09392791  0.18401392     0.02050
H132        H  0.14713243  0.03177339  0.16210798     0.15030
H133        H  0.01702993  0.07248536  0.20777698     0.15030
C134        C  0.06302177  0.13472008  0.19312382     0.36690
C135        C  0.10538733  0.97653992  0.19201554     0.36590
N136        N  0.05453991  0.16713144  0.20133369    -0.43660
N137        N  0.11944713  0.44935629  0.20861111    -0.43650
C138        C  0.09900787  0.33112609  0.10139689    -0.00070
C139        C  0.06504569  0.31051888  0.11597385    -0.11940
C140        C  0.03066113  0.30568924  0.09156004     0.02170
C141        C  0.02972187  0.31865396  0.04886590    -0.00150
C142        C  0.06660399  0.33565486  0.03500378    -0.11880
C143        C  0.10138137  0.33539999  0.05848117     0.02050
H144        H  0.06273071  0.30469732  0.14884671     0.15030
H145        H  0.07099749  0.34999710  0.00604272     0.15030
C146        C  0.13735887  0.32514357  0.03684965     0.36690
C147        C  0.99639909  0.29396873  0.11580190     0.36590
N148        N  0.16566695  0.31531924  0.01931654    -0.43660
N149        N  0.47102279  0.28549360  0.13870347    -0.43650
C150        C  0.17192202  0.44603871  0.04468827    -0.00070
C151        C  0.14557581  0.45748016  0.07616463    -0.11940
C152        C  0.14446112  0.43470457  0.11301468     0.02170
C153        C  0.14761742  0.39281972  0.10884560    -0.00150
C154        C  0.17988034  0.38257953  0.08394153    -0.11880
C155        C  0.19365754  0.41047322  0.05385753     0.02050
H156        H  0.13263527  0.48687244  0.07540344     0.15030
H157        H  0.19384176  0.35369623  0.08767398     0.15030
C158        C  0.23329125  0.40579300  0.04023351     0.36690
C159        C  0.17142778  0.44984274  0.14377774     0.36590
N160        N  0.26512014  0.40023618  0.02883984    -0.43660
N161        N  0.19383388  0.46091348  0.16829191    -0.43650
C162        C  0.08208990  0.38651033  0.14763095    -0.00070
C163        C  0.06322013  0.40992401  0.11736278    -0.11940
C164        C  0.04336378  0.44472051  0.12756297     0.02170
C165        C  0.02847298  0.45032305  0.16795909    -0.00150
C166        C  0.03697540  0.41950175  0.19708486    -0.11880
C167        C  0.06541179  0.38902563  0.18787443     0.02050
H168        H  0.07237762  0.40665084  0.08552954     0.15030
H169        H  0.02678058  0.42281632  0.22849967     0.15030
C170        C  0.08051248  0.36487078  0.22097936     0.36690
C171        C  0.04933046  0.47662494  0.09799041     0.36590
N172        N  0.09387371  0.34574303  0.24725702    -0.43660
N173        N  0.05721860  0.49953992  0.07218737    -0.43650
C174        C  0.45421828  0.32616019  0.04613113    -0.00070
C175        C  0.42575661  0.29704096  0.05953570    -0.11940
C176        C  0.39713769  0.30648199  0.09062046     0.02170
C177        C  0.40044564  0.34344234  0.11215954    -0.00150
C178        C  0.43783479  0.36271364  0.10634254    -0.11880
C179        C  0.45647669  0.36155626  0.06831889     0.02050
H180        H  0.42602054  0.26766947  0.04615826     0.15030
H181        H  0.45079988  0.38203596  0.12918114     0.15030
C182        C  0.48230285  0.39408075  0.05494589     0.36690
C183        C  0.36708041  0.27695739  0.10119299     0.36590
N184        N  0.50299642  0.41894880  0.04165585    -0.43660
N185        N  0.34288552  0.25313258  0.10912463    -0.43650
C186        C  0.33664940  0.44984889  0.03916139    -0.00070
C187        C  0.34602420  0.40933444  0.02830844    -0.11940
C188        C  0.34331872  0.37709919  0.05625440     0.02170
C189        C  0.33609051  0.38410289  0.09784460    -0.00150
C190        C  0.31593122  0.41956087  0.10617002    -0.11880
C191        C  0.32295203  0.45356699  0.08090380     0.02050
H192        H  0.35169177  0.40038674  0.99717637     0.15030
H193        H  0.30669298  0.42408575  0.13789411     0.15030
C194        C  0.32771979  0.48805807  0.10590275     0.36690
C195        C  0.33339569  0.33821937  0.04049355     0.36590
N196        N  0.33194656  0.51171700  0.13112952    -0.43660
N197        N  0.32376168  0.30694936  0.02903663    -0.43650
C198        C  0.44392653  0.46551955  0.17272740    -0.00070
C199        C  0.41976996  0.44603782  0.20241285    -0.11940
C200        C  0.39046357  0.41723872  0.19186110     0.02170
C201        C  0.38470371  0.40759708  0.15011150    -0.00150
C202        C  0.40280023  0.43446554  0.12113586    -0.11880
C203        C  0.43302593  0.46078055  0.13177817     0.02050
H204        H  0.42098191  0.45656924  0.23309074     0.15030
H205        H  0.39885229  0.42976843  0.08858200     0.15030
C206        C  0.45460444  0.47987883  0.09911966     0.36690
C207        C  0.36322078  0.40361958  0.22331571     0.36590
N208        N  0.47263191  0.49348137  0.07211680    -0.43660
N209        N  0.34055987  0.39367583  0.24842470    -0.43650
C210        C  0.10105514  0.09397357  0.34374149    -0.00070
C211        C  0.07319476  0.10477248  0.31363893    -0.11940
C212        C  0.04083230  0.07836505  0.30435385     0.02170
C213        C  0.03826609  0.03971133  0.32402785    -0.00150
C214        C  0.07056551  0.02978576  0.34984615    -0.11880
C215        C  0.10474602  0.05318275  0.34950753     0.02050
H216        H  0.07399106  0.13495362  0.30115371     0.15030
H217        H  0.07289639  0.00048511  0.36321237     0.15030
C218        C  0.14388850  0.03597579  0.34857007     0.36690
C219        C  0.00969403  0.09478275  0.27933210     0.36590
N220        N  0.17656776  0.02593405  0.34528921    -0.43660
N221        N  0.98524951  0.11090648  0.26057418    -0.43650
C222        C  0.14081644  0.09603679  0.40998567    -0.00070
C223        C  0.18201387  0.09047957  0.41477088    -0.11940
C224        C  0.19679910  0.05867088  0.43902106     0.02170
C225        C  0.17064096  0.03545731  0.46493608    -0.00150
C226        C  0.13036391  0.04230151  0.46210737    -0.11880
C227        C  0.11549930  0.07099449  0.43567326     0.02050
H228        H  0.20298935  0.10739448  0.39619462     0.15030
H229        H  0.11002459  0.02504537  0.48180259     0.15030
C230        C  0.07336770  0.06824037  0.43254368     0.36690
C231        C  0.23462954  0.04390907  0.42540093     0.36590
N232        N  0.03956183  0.06305376  0.42993609    -0.43660
N233        N  0.26324117  0.03260211  0.40946531    -0.43650
C234        C  0.09384087  0.15014840  0.39878045    -0.00070
C235        C  0.11131874  0.17118598  0.43104807    -0.11940
C236        C  0.09037413  0.17944950  0.46716440     0.02170
C237        C  0.04868106  0.16883193  0.47155918    -0.00150
C238        C  0.03244217  0.14744302  0.43876312    -0.11880
C239        C  0.05222855  0.14481841  0.40065259     0.02050
H240        H  0.14319389  0.17726958  0.42967155     0.15030
H241        H  0.00201424  0.13831971  0.44048479     0.15030
C242        C  0.02863221  0.15206309  0.36469000     0.36690
C243        C  0.11446559  0.20021400  0.49665133     0.36590
N244        N  0.01066705  0.16139218  0.33591062    -0.43660
N245        N  0.13439994  0.22014367  0.01707373    -0.43650
C246        C  0.08304160  0.35827322  0.39517087    -0.00070
C247        C  0.08291480  0.31843855  0.41048711    -0.11940
C248        C  0.05595326  0.30747696  0.44229830     0.02170
C249        C  0.02583694  0.33305258  0.45477068    -0.00150
C250        C  0.02934636  0.37296317  0.44484130    -0.11880
C251        C  0.05895573  0.38621786  0.41811471     0.02050
H252        H  0.10528281  0.29748554  0.40066432     0.15030
H253        H  0.01066320  0.39398749  0.46090997     0.15030
C254        C  0.06660150  0.42873774  0.42007719     0.36690
C255        C  0.06077286  0.27432877  0.46874162     0.36590
N256        N  0.07251280  0.46233957  0.42571596    -0.43660
N257        N  0.05663533  0.25299828  0.49633005    -0.43650
C258        C  0.08928619  0.40166068  0.33222643    -0.00070
C259        C  0.10308988  0.43353951  0.30706804    -0.11940
C260        C  0.07670609  0.46439227  0.29369870     0.02170
C261        C  0.03585084  0.46537735  0.30849509    -0.00150
C262        C  0.02435007  0.43140317  0.33074816    -0.11880
C263        C  0.04744115  0.39724849  0.33119478     0.02050
H264        H  0.13384593  0.43511965  0.29800478     0.15030
H265        H  0.99730470  0.43077391  0.34758079     0.15030
C266        C  0.03053692  0.36368584  0.31017879     0.36690
C267        C  0.09558794  0.49884937  0.27456091     0.36590
N268        N  0.01681571  0.33857610  0.29034076    -0.43660
N269        N  0.11202072  0.52706726  0.26185192    -0.43650
C270        C  0.14301840  0.39851494  0.39445142    -0.00070
C271        C  0.14922399  0.38176035  0.43422482    -0.11940
C272        C  0.17047093  0.40196017  0.46406927     0.02170
C273        C  0.17070566  0.44451111  0.46337421    -0.00150
C274        C  0.17248272  0.45943664  0.42194983    -0.11880
C275        C  0.16249019  0.43546692  0.38764095     0.02050
H276        H  0.14472998  0.34994382  0.43908477     0.15030
H277        H  0.18715426  0.48674282  0.41463035     0.15030
C278        C  0.18571436  0.44154339  0.35067078     0.36690
C279        C  0.20788249  0.38130335  0.46386941     0.36590
N280        N  0.20580357  0.44599238  0.32184137    -0.43660
N281        N  0.23646304  0.36259300  0.46019469    -0.43650
C282        C  0.36134225  0.11443050  0.41337310    -0.00070
C283        C  0.32148073  0.11399331  0.42760798    -0.11940
C284        C  0.30927156  0.08688002  0.45956809     0.02170
C285        C  0.33209048  0.05168554  0.46840139    -0.00150
C286        C  0.36886242  0.05072108  0.44860658    -0.11880
C287        C  0.38554328  0.08571931  0.43315632     0.02050
H288        H  0.30145849  0.13741794  0.41813229     0.15030
H289        H  0.38922970  0.02745498  0.45538755     0.15030
C290        C  0.42122865  0.09655989  0.45456391     0.36690
C291        C  0.27541356  0.09865679  0.48331664     0.36590
N292        N  0.44991995  0.10216717  0.47317333    -0.43660
N293        N  0.24872548  0.11124196  0.50140058    -0.43650
C294        C  0.40867242  0.11871151  0.35248895    -0.00070
C295        C  0.44439544  0.10385583  0.37012746    -0.11940
C296        C  0.45830437  0.06515657  0.36214612     0.02170
C297        C  0.45053718  0.04754564  0.32455368    -0.00150
C298        C  0.42088895  0.06582701  0.30061453    -0.11880
C299        C  0.39781358  0.09820117  0.31548344     0.02050
H300        H  0.45759419  0.11857493  0.39548835     0.15030
H301        H  0.41081619  0.04998228  0.27435598     0.15030
C302        C  0.36080283  0.10388451  0.29452757     0.36690
C303        C  0.46792020  0.03885613  0.39606606     0.36590
N304        N  0.33082111  0.10594851  0.27732232    -0.43660
N305        N  0.47303565  0.01585213  0.42236352    -0.43650
C306        C  0.40314479  0.17793718  0.40672844    -0.00070
C307        C  0.44212126  0.19075392  0.39695476    -0.11940
C308        C  0.46856221  0.20441524  0.42813628     0.02170
C309        C  0.45657108  0.20305142  0.47018231    -0.00150
C310        C  0.41499145  0.21174125  0.47252186    -0.11880
C311        C  0.38803986  0.19678115  0.44243554     0.02050
H312        H  0.45164426  0.18937963  0.36534740     0.15030
H313        H  0.40246430  0.22434341  0.50011271     0.15030
C314        C  0.34597532  0.20316564  0.44792470     0.36690
C315        C  0.50580714  0.22132035  0.41502845     0.36590
N316        N  0.31233100  0.20937994  0.45208694    -0.43660
N317        N  0.53699575  0.23016914  0.40239809    -0.43650
C318        C  0.35733565  0.40563922  0.39906331    -0.00070
C319        C  0.31825170  0.41631452  0.40943280    -0.11940
C320        C  0.31183740  0.44542033  0.43976853     0.02170
C321        C  0.34279157  0.46376768  0.46167676    -0.00150
C322        C  0.38140392  0.45364769  0.45110402    -0.11880
C323        C  0.38885092  0.42664912  0.41988718     0.02050
H324        H  0.29310239  0.40231619  0.39440503     0.15030
H325        H  0.40596418  0.46459603  0.46954984     0.15030
C326        C  0.43013808  0.42021261  0.41210772     0.36690
C327        C  0.27365021  0.45559786  0.45238937     0.36590
N328        N  0.46381439  0.41570990  0.40797794    -0.43660
N329        N  0.24747373  0.46965197  0.46913839    -0.43650
C330        C  0.39433523  0.34469014  0.38932999    -0.00070
C331        C  0.43107337  0.33257510  0.37599149    -0.11940
C332        C  0.45953165  0.31813633  0.40303166     0.02170
C333        C  0.45361335  0.31850557  0.44724118    -0.00150
C334        C  0.41297583  0.32117125  0.45883448    -0.11880
C335        C  0.38337642  0.33083323  0.42939040     0.02050
H336        H  0.43770805  0.33269546  0.34408901     0.15030
H337        H  0.40323515  0.31589833  0.48974317     0.15030
C338        C  0.34184491  0.32536959  0.43928314     0.36690
C339        C  0.49316882  0.30321604  0.38097609     0.36590
N340        N  0.30813946  0.32002706  0.44481605    -0.43660
N341        N  0.51751448  0.29198123  0.35877765    -0.43650
C342        C  0.38747803  0.40288615  0.32947542    -0.00070
C343        C  0.37116020  0.44098836  0.32544639    -0.11940
C344        C  0.39657226  0.47427338  0.32616773     0.02170
C345        C  0.43759457  0.47141301  0.31291267    -0.00150
C346        C  0.44668492  0.43314047  0.29676214    -0.11880
C347        C  0.42300627  0.39856638  0.30623949     0.02050
H348        H  0.33997493  0.44472921  0.33356835     0.15030
H349        H  0.47164118  0.43019187  0.27588945     0.15030
C350        C  0.42755254  0.36427019  0.28005676     0.36690
C351        C  0.37787622  0.50725288  0.34623248     0.36590
N352        N  0.43072124  0.33691699  0.25879118    -0.43660
N353        N  0.35911083  0.53137520  0.36224964    -0.43650
N354        N  0.17068370  0.19185879  0.71255104    -0.06030
N355        N  0.14313872  0.17860470  0.68651643    -0.58150
N356        N  0.19803199  0.17061082  0.80846470    -0.05710
N357        N  0.18718467  0.14041866  0.83319040    -0.60280
N358        N  0.16930614  0.19743344  0.80697949    -0.05310
N359        N  0.13944973  0.18591145  0.83146738    -0.58130
N360        N  0.20036749  0.16609014  0.71406561    -0.04990
N361        N  0.19326513  0.13602909  0.68829371    -0.60630
C362        C  0.15780222  0.14443201  0.66987690     0.96150
C363        C  0.15108047  0.15070082  0.84878017     0.95920
N364        N  0.32460855  0.20731418  0.80775967    -0.06220
N365        N  0.35553319  0.20159374  0.83244636    -0.58730
N366        N  0.29828694  0.17221558  0.71476759    -0.04340
N367        N  0.30897538  0.14359274  0.68894863    -0.59980
N368        N  0.32402459  0.20219034  0.71222011    -0.06250
N369        N  0.35220386  0.19410691  0.68467726    -0.59000
N370        N  0.29800768  0.17824791  0.81239224    -0.03980
N371        N  0.31077080  0.15289276  0.84156305    -0.60070
Mn372      Mn  0.24885896  0.17139652  0.76278257     1.18440
C373        C  0.34706668  0.16767956  0.85417742     0.98230
C374        C  0.34226308  0.15763963  0.66912984     0.98890
N375        N  0.16291089  0.29719251  0.80150637    -0.06270
N376        N  0.13219149  0.30842608  0.82507678    -0.62570
N377        N  0.19181671  0.32232597  0.70549066    -0.05070
N378        N  0.18013742  0.35091079  0.67953184    -0.63250
N379        N  0.16498611  0.29297567  0.70666592    -0.05770
N380        N  0.13499103  0.30172796  0.68146733    -0.62840
N381        N  0.19019998  0.32610665  0.80004030    -0.04670
N382        N  0.17813555  0.35666492  0.82258092    -0.63530
Mn383      Mn  0.16677316  0.24474492  0.75685286     1.10660
C384        C  0.14218254  0.34560953  0.83906623     0.99450
C385        C  0.14446248  0.33810621  0.66440549     0.99530
N386        N  0.32027200  0.29942681  0.70775814    -0.05780
N387        N  0.35033768  0.30936370  0.68274013    -0.61150
N388        N  0.29009830  0.33046074  0.80110597    -0.05100
N389        N  0.30105643  0.36065907  0.82542570    -0.57880
N390        N  0.31755801  0.30247207  0.80224004    -0.06410
N391        N  0.34635486  0.31273893  0.82760944    -0.60720
N392        N  0.29165032  0.32618863  0.70534771    -0.05400
N393        N  0.30212620  0.35432524  0.67792321    -0.57910
Mn394      Mn  0.32118593  0.25277175  0.75722314     1.20190
Mn395      Mn  0.24103231  0.32655769  0.75297035     1.10090
Cl396      Cl  0.24399999  0.24890218  0.75734758    -0.85880
C397        C  0.33887738  0.34356322  0.66363076     0.96460
C398        C  0.33599242  0.34869490  0.84300704     0.96250
C399        C  0.36816777  0.37495351  0.86431534    -0.02400
C400        C  0.37947089  0.14522730  0.88087958    -0.02400
C401        C  0.11500593  0.37550494  0.86366914    -0.02400
C402        C  0.12229808  0.12298136  0.87423313    -0.02400
C403        C  0.46841649  0.00703067  0.81406114     0.00650
C404        C  0.01096672  0.00434583  0.81230610     0.00650
C405        C  0.36470295  0.36825594  0.63198443    -0.02400
C406        C  0.11912306  0.36153610  0.63163068    -0.02400
C407        C  0.48963270  0.31936181  0.97764121     0.00650
C408        C  0.49070317  0.31709465  0.52128503     0.00650
C409        C  0.13554712  0.11608575  0.63841011    -0.02400
C410        C  0.47275840  0.99873353  0.68356645     0.00650
C411        C  0.01447280  0.99171080  0.68163047     0.00650
C412        C  0.17601626  0.47017957  0.50410983     0.00650
C413        C  0.18141083  0.01283072  0.50346211     0.00650
C414        C  0.48140999  0.18864124  0.50993393     0.00650
C415        C  0.02246113  0.17626323  0.50985734     0.00650
C416        C  0.37042106  0.13330389  0.63999477    -0.02400
C417        C  0.33545413  0.48214874  0.50366797     0.00650
C418        C  0.32716633  0.02351929  0.50583178     0.00650
C419        C  0.33433045  0.04631805  0.54439592    -0.00070
C420        C  0.30386084  0.06631871  0.56583934    -0.11940
C421        C  0.31248939  0.09339931  0.59813036     0.02170
C422        C  0.35272592  0.09990143  0.61068441    -0.00150
C423        C  0.38215508  0.07827735  0.58858517    -0.11880
C424        C  0.37370662  0.05313016  0.55633242     0.02050
H425        H  0.27338818  0.06166249  0.55651065     0.15030
H426        H  0.41332533  0.08451425  0.59291086     0.15030
C427        C  0.40676150  0.03758712  0.53335346     0.36690
C428        C  0.28028921  0.11776031  0.61218645     0.36590
N429        N  0.43285528  0.02622597  0.51343537    -0.43660
N430        N  0.25427676  0.13800359  0.62204674    -0.43650
C431        C  0.45370558  0.17999230  0.54838849    -0.00070
C432        C  0.41685054  0.16099489  0.54006430    -0.11940
C433        C  0.38459010  0.16292517  0.56680881     0.02170
C434        C  0.39154290  0.16438431  0.60923740    -0.00150
C435        C  0.42507325  0.18754996  0.61941195    -0.11880
C436        C  0.45695105  0.19357537  0.59042611     0.02050
H437        H  0.41036888  0.14938804  0.51032852     0.15030
H438        H  0.43000294  0.19375855  0.65173671     0.15030
C439        C  0.49297813  0.20533898  0.61017364     0.36690
C440        C  0.34493045  0.16483674  0.55008469     0.36590
N441        N  0.51875034  0.21333517  0.63225907    -0.43660
N442        N  0.31323211  0.16777965  0.53665664    -0.43650
C443        C  0.45091327  0.03908523  0.68416213    -0.00070
C444        C  0.41173389  0.04165914  0.70009668    -0.11940
C445        C  0.38612489  0.07385338  0.69087269     0.02170
C446        C  0.40009019  0.10778251  0.66752633    -0.00150
C447        C  0.44135064  0.10716335  0.65821499    -0.11880
C448        C  0.46239512  0.07150645  0.65928550     0.02050
H449        H  0.39890341  0.01676322  0.71693155     0.15030
H450        H  0.45583147  0.12937957  0.63984682     0.15030
C451        C  0.49091377  0.06611296  0.62775191     0.36690
C452        C  0.34440661  0.06660113  0.69933445     0.36690
N453        N  0.51440071  0.05989670  0.60311035    -0.43660
N454        N  0.31117267  0.05896340  0.70571568    -0.43650
C455        C  0.04477389  0.16235561  0.54797406    -0.00070
C456        C  0.06802054  0.18961720  0.57053245    -0.11940
C457        C  0.09739476  0.17770257  0.59928323     0.02170
C458        C  0.10359887  0.13627883  0.60835885    -0.00150
C459        C  0.08176148  0.10944014  0.58314352    -0.11880
C460        C  0.05387270  0.12181174  0.55343764     0.02050
H461        H  0.06438270  0.22123989  0.56449516     0.15030
H462        H  0.08800389  0.07776185  0.58550827     0.15030
C463        C  0.03504450  0.09169481  0.52856256     0.36690
C464        C  0.12387485  0.20927932  0.61207896     0.36590
N465        N  0.01913948  0.06607482  0.51135720    -0.43660
N466        N  0.14496842  0.23557430  0.62033847    -0.43650
C467        C  0.16714947  0.09674525  0.60746987    -0.00070
C468        C  0.19026754  0.06218024  0.61396182    -0.11940
C469        C  0.19807220  0.03524841  0.58101611     0.02170
C470        C  0.18313902  0.04265570  0.54075075    -0.00150
C471        C  0.17307095  0.08378307  0.53446655    -0.11880
C472        C  0.17045647  0.11085668  0.56684333     0.02050
H473        H  0.20202979  0.05600046  0.64434153     0.15030
H474        H  0.17001734  0.09700071  0.50428041     0.15030
C475        C  0.18307466  0.15160127  0.55972217     0.36690
C476        C  0.22418275  0.00290654  0.58889832     0.36590
N477        N  0.19672598  0.18324591  0.55501341    -0.43660
N478        N  0.24424810  0.97618385  0.59657334    -0.43650
C479        C  0.10949460  0.08397468  0.66395560    -0.00070
C480        C  0.11777448  0.04265384  0.66524025    -0.11940
C481        C  0.08934455  0.01338239  0.67662226     0.02170
C482        C  0.04914882  0.02333457  0.68471554    -0.00150
C483        C  0.04438041  0.06380109  0.69457346    -0.11880
C484        C  0.07300804  0.09392791  0.68401392     0.02050
H485        H  0.14713244  0.03177339  0.66210798     0.15030
H486        H  0.01702994  0.07248536  0.70777698     0.15030
C487        C  0.06302177  0.13472008  0.69312382     0.36690
C488        C  0.10538734  0.97653992  0.69201554     0.36590
N489        N  0.05453991  0.16713144  0.70133369    -0.43660
N490        N  0.11944713  0.44935629  0.70861111    -0.43650
C491        C  0.09900787  0.33112608  0.60139689    -0.00070
C492        C  0.06504569  0.31051888  0.61597385    -0.11940
C493        C  0.03066112  0.30568924  0.59156004     0.02170
C494        C  0.02972187  0.31865396  0.54886591    -0.00150
C495        C  0.06660399  0.33565486  0.53500378    -0.11880
C496        C  0.10138137  0.33539999  0.55848117     0.02050
H497        H  0.06273072  0.30469731  0.64884671     0.15030
H498        H  0.07099749  0.34999710  0.50604273     0.15030
C499        C  0.13735886  0.32514357  0.53684965     0.36690
C500        C  0.99639909  0.29396874  0.61580190     0.36590
N501        N  0.16566694  0.31531924  0.51931653    -0.43660
N502        N  0.47102279  0.28549360  0.63870347    -0.43650
C503        C  0.17192202  0.44603871  0.54468827    -0.00070
C504        C  0.14557581  0.45748015  0.57616463    -0.11940
C505        C  0.14446112  0.43470457  0.61301468     0.02170
C506        C  0.14761742  0.39281972  0.60884560    -0.00150
C507        C  0.17988034  0.38257952  0.58394154    -0.11880
C508        C  0.19365754  0.41047321  0.55385753     0.02050
H509        H  0.13263527  0.48687244  0.57540344     0.15030
H510        H  0.19384176  0.35369623  0.58767398     0.15030
C511        C  0.23329125  0.40579299  0.54023351     0.36690
C512        C  0.17142778  0.44984274  0.64377774     0.36590
N513        N  0.26512014  0.40023616  0.52883984    -0.43660
N514        N  0.19383388  0.46091348  0.66829191    -0.43650
C515        C  0.08208990  0.38651033  0.64763095    -0.00070
C516        C  0.06322013  0.40992401  0.61736278    -0.11940
C517        C  0.04336378  0.44472051  0.62756297     0.02170
C518        C  0.02847298  0.45032305  0.66795909    -0.00150
C519        C  0.03697540  0.41950175  0.69708486    -0.11880
C520        C  0.06541179  0.38902563  0.68787443     0.02050
H521        H  0.07237762  0.40665084  0.58552954     0.15030
H522        H  0.02678058  0.42281632  0.72849967     0.15030
C523        C  0.08051248  0.36487077  0.72097936     0.36690
C524        C  0.04933046  0.47662494  0.59799041     0.36590
N525        N  0.09387371  0.34574302  0.74725702    -0.43660
N526        N  0.05721860  0.49953992  0.57218737    -0.43650
C527        C  0.45421828  0.32616019  0.54613113    -0.00070
C528        C  0.42575661  0.29704096  0.55953570    -0.11940
C529        C  0.39713770  0.30648198  0.59062046     0.02170
C530        C  0.40044565  0.34344234  0.61215954    -0.00150
C531        C  0.43783479  0.36271364  0.60634254    -0.11880
C532        C  0.45647669  0.36155626  0.56831888     0.02050
H533        H  0.42602054  0.26766947  0.54615826     0.15030
H534        H  0.45079988  0.38203596  0.62918114     0.15030
C535        C  0.48230285  0.39408075  0.55494589     0.36690
C536        C  0.36708041  0.27695739  0.60119299     0.36590
N537        N  0.50299642  0.41894880  0.54165584    -0.43660
N538        N  0.34288552  0.25313258  0.60912463    -0.43650
C539        C  0.33664940  0.44984889  0.53916139    -0.00070
C540        C  0.34602420  0.40933444  0.52830844    -0.11940
C541        C  0.34331872  0.37709919  0.55625440     0.02170
C542        C  0.33609051  0.38410289  0.59784460    -0.00150
C543        C  0.31593122  0.41956087  0.60617002    -0.11880
C544        C  0.32295203  0.45356698  0.58090380     0.02050
H545        H  0.35169177  0.40038673  0.49717636     0.15030
H546        H  0.30669298  0.42408575  0.63789411     0.15030
C547        C  0.32771978  0.48805807  0.60590275     0.36690
C548        C  0.33339570  0.33821937  0.54049355     0.36590
N549        N  0.33194656  0.51171699  0.63112952    -0.43660
N550        N  0.32376169  0.30694936  0.52903663    -0.43650
C551        C  0.44392654  0.46551955  0.67272740    -0.00070
C552        C  0.41976996  0.44603781  0.70241285    -0.11940
C553        C  0.39046357  0.41723872  0.69186110     0.02170
C554        C  0.38470372  0.40759708  0.65011149    -0.00150
C555        C  0.40280023  0.43446554  0.62113586    -0.11880
C556        C  0.43302593  0.46078055  0.63177817     0.02050
H557        H  0.42098192  0.45656924  0.73309073     0.15030
H558        H  0.39885229  0.42976844  0.58858199     0.15030
C559        C  0.45460444  0.47987883  0.59911965     0.36690
C560        C  0.36322078  0.40361958  0.72331571     0.36590
N561        N  0.47263191  0.49348137  0.57211680    -0.43660
N562        N  0.34055987  0.39367583  0.74842470    -0.43650
C563        C  0.10105514  0.09397357  0.84374149    -0.00070
C564        C  0.07319476  0.10477248  0.81363893    -0.11940
C565        C  0.04083231  0.07836505  0.80435385     0.02170
C566        C  0.03826610  0.03971133  0.82402784    -0.00150
C567        C  0.07056552  0.02978575  0.84984614    -0.11880
C568        C  0.10474603  0.05318275  0.84950752     0.02050
H569        H  0.07399107  0.13495362  0.80115370     0.15030
H570        H  0.07289640  0.00048511  0.86321236     0.15030
C571        C  0.14388851  0.03597578  0.84857007     0.36690
C572        C  0.00969404  0.09478275  0.77933210     0.36590
N573        N  0.17656777  0.02593404  0.84528922    -0.43660
N574        N  0.98524952  0.11090647  0.76057419    -0.43650
C575        C  0.14081644  0.09603679  0.90998567    -0.00070
C576        C  0.18201387  0.09047957  0.91477088    -0.11940
C577        C  0.19679910  0.05867087  0.93902107     0.02170
C578        C  0.17064096  0.03545730  0.96493609    -0.00150
C579        C  0.13036391  0.04230151  0.96210737    -0.11880
C580        C  0.11549930  0.07099448  0.93567325     0.02050
H581        H  0.20298936  0.10739447  0.89619462     0.15030
H582        H  0.11002459  0.02504537  0.98180259     0.15030
C583        C  0.07336771  0.06824036  0.93254368     0.36690
C584        C  0.23462955  0.04390907  0.92540093     0.36590
N585        N  0.03956183  0.06305376  0.92993609    -0.43660
N586        N  0.26324117  0.03260210  0.90946532    -0.43650
C587        C  0.09384088  0.15014840  0.89878045    -0.00070
C588        C  0.11131874  0.17118598  0.93104807    -0.11940
C589        C  0.09037413  0.17944949  0.96716440     0.02170
C590        C  0.04868106  0.16883192  0.97155918    -0.00150
C591        C  0.03244217  0.14744302  0.93876311    -0.11880
C592        C  0.05222856  0.14481841  0.90065259     0.02050
H593        H  0.14319390  0.17726958  0.92967155     0.15030
H594        H  0.00201424  0.13831971  0.94048478     0.15030
C595        C  0.02863222  0.15206310  0.86468999     0.36690
C596        C  0.11446558  0.20021399  0.99665133     0.36590
N597        N  0.01066706  0.16139219  0.83591062    -0.43660
N598        N  0.13439994  0.22014368  0.51707373    -0.43650
C599        C  0.08304160  0.35827322  0.89517086    -0.00070
C600        C  0.08291480  0.31843855  0.91048711    -0.11940
C601        C  0.05595327  0.30747696  0.94229829     0.02170
C602        C  0.02583694  0.33305258  0.95477067    -0.00150
C603        C  0.02934637  0.37296317  0.94484130    -0.11880
C604        C  0.05895573  0.38621786  0.91811471     0.02050
H605        H  0.10528281  0.29748554  0.90066431     0.15030
H606        H  0.01066320  0.39398749  0.96090997     0.15030
C607        C  0.06660150  0.42873774  0.92007719     0.36690
C608        C  0.06077286  0.27432877  0.96874162     0.36590
N609        N  0.07251280  0.46233957  0.92571596    -0.43660
N610        N  0.05663533  0.25299827  0.99633004    -0.43650
C611        C  0.08928619  0.40166068  0.83222642    -0.00070
C612        C  0.10308988  0.43353952  0.80706804    -0.11940
C613        C  0.07670609  0.46439228  0.79369870     0.02170
C614        C  0.03585084  0.46537736  0.80849509    -0.00150
C615        C  0.02435007  0.43140318  0.83074816    -0.11880
C616        C  0.04744115  0.39724850  0.83119478     0.02050
H617        H  0.13384593  0.43511965  0.79800478     0.15030
H618        H  0.99730470  0.43077392  0.84758079     0.15030
C619        C  0.03053692  0.36368584  0.81017879     0.36690
C620        C  0.09558794  0.49884937  0.77456091     0.36590
N621        N  0.01681570  0.33857611  0.79034076    -0.43660
N622        N  0.11202072  0.52706726  0.76185192    -0.43650
C623        C  0.14301840  0.39851494  0.89445142    -0.00070
C624        C  0.14922399  0.38176035  0.93422482    -0.11940
C625        C  0.17047093  0.40196018  0.96406927     0.02170
C626        C  0.17070565  0.44451111  0.96337421    -0.00150
C627        C  0.17248271  0.45943664  0.92194983    -0.11880
C628        C  0.16249019  0.43546692  0.88764095     0.02050
H629        H  0.14472998  0.34994382  0.93908476     0.15030
H630        H  0.18715426  0.48674283  0.91463035     0.15030
C631        C  0.18571436  0.44154340  0.85067078     0.36690
C632        C  0.20788248  0.38130335  0.96386942     0.36590
N633        N  0.20580357  0.44599239  0.82184137    -0.43660
N634        N  0.23646303  0.36259300  0.96019471    -0.43650
C635        C  0.36134225  0.11443050  0.91337310    -0.00070
C636        C  0.32148073  0.11399331  0.92760798    -0.11940
C637        C  0.30927156  0.08688002  0.95956809     0.02170
C638        C  0.33209048  0.05168554  0.96840139    -0.00150
C639        C  0.36886243  0.05072108  0.94860658    -0.11880
C640        C  0.38554328  0.08571931  0.93315632     0.02050
H641        H  0.30145849  0.13741794  0.91813229     0.15030
H642        H  0.38922971  0.02745498  0.95538755     0.15030
C643        C  0.42122865  0.09655989  0.95456391     0.36690
C644        C  0.27541357  0.09865679  0.98331664     0.36590
N645        N  0.44991995  0.10216717  0.97317333    -0.43660
N646        N  0.24872548  0.11124196  0.00140058    -0.43650
C647        C  0.40867242  0.11871151  0.85248895    -0.00070
C648        C  0.44439545  0.10385583  0.87012746    -0.11940
C649        C  0.45830437  0.06515657  0.86214612     0.02170
C650        C  0.45053718  0.04754564  0.82455368    -0.00150
C651        C  0.42088896  0.06582701  0.80061453    -0.11880
C652        C  0.39781358  0.09820117  0.81548344     0.02050
H653        H  0.45759419  0.11857493  0.89548835     0.15030
H654        H  0.41081619  0.04998228  0.77435598     0.15030
C655        C  0.36080284  0.10388451  0.79452757     0.36690
C656        C  0.46792020  0.03885613  0.89606606     0.36590
N657        N  0.33082111  0.10594851  0.77732232    -0.43660
N658        N  0.47303565  0.01585212  0.92236352    -0.43650
C659        C  0.40314480  0.17793718  0.90672844    -0.00070
C660        C  0.44212126  0.19075392  0.89695476    -0.11940
C661        C  0.46856221  0.20441524  0.92813628     0.02170
C662        C  0.45657108  0.20305142  0.97018231    -0.00150
C663        C  0.41499145  0.21174125  0.97252186    -0.11880
C664        C  0.38803986  0.19678115  0.94243554     0.02050
H665        H  0.45164426  0.18937963  0.86534740     0.15030
H666        H  0.40246431  0.22434341  0.00011271     0.15030
C667        C  0.34597533  0.20316564  0.94792470     0.36690
C668        C  0.50580715  0.22132035  0.91502845     0.36590
N669        N  0.31233100  0.20937994  0.95208694    -0.43660
N670        N  0.53699576  0.23016914  0.90239809    -0.43650
C671        C  0.35733565  0.40563922  0.89906331    -0.00070
C672        C  0.31825170  0.41631453  0.90943280    -0.11940
C673        C  0.31183740  0.44542033  0.93976854     0.02170
C674        C  0.34279157  0.46376768  0.96167677    -0.00150
C675        C  0.38140392  0.45364769  0.95110402    -0.11880
C676        C  0.38885092  0.42664913  0.91988718     0.02050
H677        H  0.29310239  0.40231619  0.89440503     0.15030
H678        H  0.40596418  0.46459603  0.96954984     0.15030
C679        C  0.43013808  0.42021262  0.91210772     0.36690
C680        C  0.27365021  0.45559786  0.95238937     0.36590
N681        N  0.46381439  0.41570990  0.90797794    -0.43660
N682        N  0.24747373  0.46965198  0.96913839    -0.43650
C683        C  0.39433523  0.34469014  0.88933000    -0.00070
C684        C  0.43107337  0.33257510  0.87599149    -0.11940
C685        C  0.45953164  0.31813633  0.90303166     0.02170
C686        C  0.45361335  0.31850557  0.94724118    -0.00150
C687        C  0.41297583  0.32117125  0.95883448    -0.11880
C688        C  0.38337642  0.33083323  0.92939040     0.02050
H689        H  0.43770805  0.33269547  0.84408901     0.15030
H690        H  0.40323515  0.31589834  0.98974317     0.15030
C691        C  0.34184490  0.32536959  0.93928314     0.36690
C692        C  0.49316881  0.30321604  0.88097609     0.36590
N693        N  0.30813946  0.32002707  0.94481606    -0.43660
N694        N  0.51751448  0.29198123  0.85877765    -0.43650
C695        C  0.38747803  0.40288615  0.82947542    -0.00070
C696        C  0.37116020  0.44098836  0.82544639    -0.11940
C697        C  0.39657226  0.47427338  0.82616773     0.02170
C698        C  0.43759457  0.47141302  0.81291267    -0.00150
C699        C  0.44668492  0.43314047  0.79676214    -0.11880
C700        C  0.42300627  0.39856638  0.80623949     0.02050
H701        H  0.33997493  0.44472922  0.83356835     0.15030
H702        H  0.47164118  0.43019187  0.77588945     0.15030
C703        C  0.42755254  0.36427019  0.78005676     0.36690
C704        C  0.37787622  0.50725289  0.84623248     0.36590
N705        N  0.43072124  0.33691699  0.75879118    -0.43660
N706        N  0.35911083  0.53137520  0.86224964    -0.43650
N707        N  0.17068332  0.69185912  0.21255067    -0.06030
N708        N  0.14313841  0.67860523  0.18651587    -0.58150
N709        N  0.19803088  0.67061082  0.30846442    -0.05710
N710        N  0.18718306  0.64041847  0.33318968    -0.60280
N711        N  0.16930522  0.69743362  0.30697915    -0.05310
N712        N  0.13944843  0.68591157  0.33146657    -0.58130
N713        N  0.20036695  0.66609030  0.21406538    -0.04990
N714        N  0.19326453  0.63602927  0.18829346    -0.60630
C715        C  0.15780178  0.64443243  0.16987643     0.96150
C716        C  0.15107873  0.65070069  0.34877914     0.95920
N717        N  0.32460784  0.70731410  0.30775974    -0.06220
N718        N  0.35553230  0.70159341  0.33244662    -0.58730
N719        N  0.29828648  0.67221536  0.21476794    -0.04340
N720        N  0.30897495  0.64359240  0.18894915    -0.59980
N721        N  0.32402417  0.70219008  0.21222032    -0.06250
N722        N  0.35220345  0.69410654  0.18467757    -0.59000
N723        N  0.29800662  0.67824816  0.31239242    -0.03980
N724        N  0.31076921  0.65289314  0.34156359    -0.60070
Mn725      Mn  0.24885820  0.67139658  0.26278259     1.18440
C726        C  0.34706524  0.66767949  0.35417791     0.98230
C727        C  0.34226267  0.65763921  0.16913034     0.98890
N728        N  0.16291133  0.79719279  0.30150609    -0.06270
N729        N  0.13219212  0.80842646  0.32507670    -0.62570
N730        N  0.19181693  0.82232603  0.20549040    -0.05070
N731        N  0.18013757  0.85091085  0.17953162    -0.63250
N732        N  0.16498627  0.79297580  0.20666575    -0.05770
N733        N  0.13499112  0.80172808  0.18146727    -0.62840
N734        N  0.19020057  0.82610680  0.30003995    -0.04670
N735        N  0.17813644  0.85666507  0.32258073    -0.63530
Mn736      Mn  0.16677302  0.74474519  0.25685260     1.10660
C737        C  0.14218348  0.84560980  0.33906619     0.99450
C738        C  0.14446256  0.83810629  0.16440542     0.99530
N739        N  0.32027222  0.79942659  0.20775758    -0.05780
N740        N  0.35033788  0.80936331  0.18273944    -0.61150
N741        N  0.29009896  0.83046112  0.30110536    -0.05100
N742        N  0.30105750  0.86065973  0.32542457    -0.57880
N743        N  0.31755855  0.80247233  0.30223955    -0.06410
N744        N  0.34635575  0.81273944  0.32760846    -0.60720
N745        N  0.29165061  0.82618848  0.20534704    -0.05400
N746        N  0.30212651  0.85432495  0.17792238    -0.57910
Mn747      Mn  0.32118584  0.75277165  0.25722298     1.20190
Mn748      Mn  0.24103272  0.82655779  0.25296988     1.10090
Cl749      Cl  0.24399987  0.74890228  0.25734740    -0.85880
C750        C  0.33887765  0.84356279  0.16362989     0.96460
C751        C  0.33599365  0.84869568  0.34300567     0.96250
C752        C  0.36816916  0.87495430  0.36431392    -0.02400
C753        C  0.37946911  0.64522683  0.38088008    -0.02400
C754        C  0.11500715  0.87550527  0.36366920    -0.02400
C755        C  0.12229614  0.62298139  0.37423220    -0.02400
C756        C  0.46841440  0.50702981  0.31406181     0.00650
C757        C  0.01096463  0.50434504  0.31230664     0.00650
C758        C  0.36470341  0.86825556  0.13198365    -0.02400
C759        C  0.11912310  0.86153609  0.13163066    -0.02400
C760        C  0.48963347  0.81936217  0.47764049     0.00650
C761        C  0.49070377  0.81709474  0.02128431     0.00650
C762        C  0.13554660  0.61608619  0.13840968    -0.02400
C763        C  0.47275845  0.49873367  0.18356657     0.00650
C764        C  0.01447284  0.49171094  0.18163045     0.00650
C765        C  0.17601755  0.97017928  0.00411042     0.00650
C766        C  0.18140919  0.51283108  0.00346148     0.00650
C767        C  0.48140885  0.68864093  0.00993398     0.00650
C768        C  0.02246003  0.67626310  0.00985709     0.00650
C769        C  0.37042055  0.63330346  0.13999528    -0.02400
C770        C  0.33545562  0.98214898  0.00366709     0.00650
C771        C  0.32716483  0.52351904  0.00583260     0.00650
C772        C  0.33432918  0.54631782  0.04439668    -0.00070
C773        C  0.30385977  0.56631882  0.06584003    -0.11940
C774        C  0.31248854  0.59339928  0.09813110     0.02170
C775        C  0.35272512  0.59990086  0.11068532    -0.00150
C776        C  0.38215407  0.57827640  0.08858619    -0.11880
C777        C  0.37370540  0.55312948  0.05633327     0.02050
H778        H  0.27338710  0.56166299  0.05651125     0.15030
H779        H  0.41332437  0.58451292  0.09291193     0.15030
C780        C  0.40676017  0.53758649  0.03335412     0.36690
C781        C  0.28028861  0.61776076  0.11218692     0.36590
N782        N  0.43285390  0.52622546  0.01343589    -0.43660
N783        N  0.25427635  0.63800442  0.12204691    -0.43650
C784        C  0.45370475  0.67999170  0.04838866    -0.00070
C785        C  0.41684996  0.66099378  0.04006461    -0.11940
C786        C  0.38458947  0.66292405  0.06680903     0.02170
C787        C  0.39154216  0.66438373  0.10923761    -0.00150
C788        C  0.42507232  0.68754975  0.11941200    -0.11880
C789        C  0.45695012  0.69357510  0.09042616     0.02050
H790        H  0.41036842  0.64938684  0.01032886     0.15030
H791        H  0.43000197  0.69375856  0.15173672     0.15030
C792        C  0.49297726  0.70533850  0.11017372     0.36690
C793        C  0.34492988  0.66483566  0.05008480     0.36590
N794        N  0.51874952  0.71333446  0.13225916    -0.43660
N795        N  0.31323158  0.66777861  0.03665666    -0.43650
C796        C  0.45091340  0.53908539  0.18416250    -0.00070
C797        C  0.41173419  0.54165932  0.20009747    -0.11940
C798        C  0.38612503  0.57385346  0.19087358     0.02170
C799        C  0.40009001  0.60778242  0.16752681    -0.00150
C800        C  0.44135040  0.60716338  0.15821514    -0.11880
C801        C  0.46239504  0.57150657  0.15928572     0.02050
H802        H  0.39890380  0.51676328  0.21693218     0.15030
H803        H  0.45583100  0.62937953  0.13984669     0.15030
C804        C  0.49091355  0.56611302  0.12775201     0.36690
C805        C  0.34440684  0.56660112  0.19933560     0.36690
N806        N  0.51440036  0.55989661  0.10311037    -0.43660
N807        N  0.31117293  0.55896323  0.20571683    -0.43650
C808        C  0.04477302  0.66235567  0.04797375    -0.00070
C809        C  0.06801963  0.68961738  0.07053204    -0.11940
C810        C  0.09739394  0.67770288  0.09928281     0.02170
C811        C  0.10359811  0.63627916  0.10835858    -0.00150
C812        C  0.08176070  0.60944038  0.08314338    -0.11880
C813        C  0.05387188  0.62181184  0.05343747     0.02050
H814        H  0.06438170  0.72124006  0.06449465     0.15030
H815        H  0.08800319  0.57776211  0.08550817     0.15030
C816        C  0.03504371  0.59169481  0.02856249     0.36690
C817        C  0.12387405  0.70927967  0.11207838     0.36590
N818        N  0.01913871  0.56607474  0.01135722    -0.43660
N819        N  0.14496764  0.73557468  0.12033776    -0.43650
C820        C  0.16714885  0.59674579  0.10746927    -0.00070
C821        C  0.19026694  0.56218077  0.11396099    -0.11940
C822        C  0.19807116  0.53524890  0.08101520     0.02170
C823        C  0.18313748  0.54265611  0.04075006    -0.00150
C824        C  0.17306921  0.58378346  0.03446592    -0.11880
C825        C  0.17045540  0.61085716  0.06684270     0.02050
H826        H  0.20202953  0.55600101  0.14434055     0.15030
H827        H  0.17001518  0.59700104  0.00427981     0.15030
C828        C  0.18307410  0.65160158  0.05972148     0.36690
C829        C  0.22418166  0.50290694  0.08889703     0.36590
N830        N  0.19672581  0.68324607  0.05501276    -0.43660
N831        N  0.24424690  0.47618402  0.09657145    -0.43650
C832        C  0.10949436  0.58397502  0.16395528    -0.00070
C833        C  0.11777437  0.54265420  0.16523985    -0.11940
C834        C  0.08934454  0.51338266  0.17662185     0.02170
C835        C  0.04914882  0.52333477  0.18471535    -0.00150
C836        C  0.04438039  0.56380126  0.19457344    -0.11880
C837        C  0.07300790  0.59392814  0.18401385     0.02050
H838        H  0.14713239  0.53177388  0.16210763     0.15030
H839        H  0.01703002  0.57248551  0.20777715     0.15030
C840        C  0.06302163  0.63472025  0.19312400     0.36690
C841        C  0.10538750  0.47654027  0.19201519     0.36590
N842        N  0.05453976  0.66713156  0.20133409    -0.43660
N843        N  0.11944689  0.94935583  0.20861133    -0.43650
C844        C  0.09900805  0.83112605  0.10139683    -0.00070
C845        C  0.06504581  0.81051883  0.11597358    -0.11940
C846        C  0.03066144  0.80568908  0.09155951     0.02170
C847        C  0.02972242  0.81865385  0.04886537    -0.00150
C848        C  0.06660471  0.83565457  0.03500345    -0.11880
C849        C  0.10138191  0.83539978  0.05848116     0.02050
H850        H  0.06273065  0.80469728  0.14884644     0.15030
H851        H  0.07099854  0.84999665  0.00604237     0.15030
C852        C  0.13735954  0.82514293  0.03685014     0.36690
C853        C  0.99639934  0.79396838  0.11580115     0.36590
N854        N  0.16566774  0.81531812  0.01931752    -0.43660
N855        N  0.47102296  0.78549321  0.13870263    -0.43650
C856        C  0.17192289  0.94603865  0.04468886    -0.00070
C857        C  0.14557628  0.95748014  0.07616481    -0.11940
C858        C  0.14446117  0.93470455  0.11301484     0.02170
C859        C  0.14761749  0.89281971  0.10884571    -0.00150
C860        C  0.17988071  0.88257948  0.08394205    -0.11880
C861        C  0.19365835  0.91047327  0.05385841     0.02050
H862        H  0.13263574  0.98687242  0.07540342     0.15030
H863        H  0.19384210  0.85369619  0.08767464     0.15030
C864        C  0.23329227  0.90579337  0.04023502     0.36690
C865        C  0.17142765  0.94984263  0.14377810     0.36590
N866        N  0.26512124  0.90023688  0.02884145    -0.43660
N867        N  0.19383360  0.96091328  0.16829247    -0.43650
C868        C  0.08208988  0.88651023  0.14763087    -0.00070
C869        C  0.06322017  0.90992394  0.11736271    -0.11940
C870        C  0.04336385  0.94472046  0.12756295     0.02170
C871        C  0.02847295  0.95032291  0.16795905    -0.00150
C872        C  0.03697530  0.91950154  0.19708476    -0.11880
C873        C  0.06541170  0.88902542  0.18787432     0.02050
H874        H  0.07237773  0.90665082  0.08552948     0.15030
H875        H  0.02678057  0.92281611  0.22849960     0.15030
C876        C  0.08051250  0.86487062  0.22097923     0.36690
C877        C  0.04933075  0.97662496  0.09799053     0.36590
N878        N  0.09387393  0.84574294  0.24725683    -0.43660
N879        N  0.05721907  0.99954001  0.07218761    -0.43650
C880        C  0.45421879  0.82616016  0.04613033    -0.00070
C881        C  0.42575705  0.79704088  0.05953465    -0.11940
C882        C  0.39713815  0.80648173  0.09061951     0.02170
C883        C  0.40044613  0.84344193  0.11215885    -0.00150
C884        C  0.43783533  0.86271317  0.10634203    -0.11880
C885        C  0.45647719  0.86155608  0.06831833     0.02050
H886        H  0.42602097  0.76766950  0.04615699     0.15030
H887        H  0.45080042  0.88203534  0.12918078     0.15030
C888        C  0.48230335  0.89408066  0.05494556     0.36690
C889        C  0.36708081  0.77695713  0.10119189     0.36590
N890        N  0.50299691  0.91894879  0.04165567    -0.43660
N891        N  0.34288589  0.75313233  0.10912347    -0.43650
C892        C  0.33665079  0.94984904  0.03916046    -0.00070
C893        C  0.34602554  0.90933460  0.02830749    -0.11940
C894        C  0.34331979  0.87709926  0.05625338     0.02170
C895        C  0.33609127  0.88410283  0.09784361    -0.00150
C896        C  0.31593221  0.91956098  0.10616899    -0.11880
C897        C  0.32295327  0.95356713  0.08090281     0.02050
H898        H  0.35169340  0.90038700  0.99717543     0.15030
H899        H  0.30669391  0.92408589  0.13789306     0.15030
C900        C  0.32772163  0.98805808  0.10590181     0.36690
C901        C  0.33339682  0.83821953  0.04049226     0.36590
N902        N  0.33194906  0.01171695  0.13112852    -0.43660
N903        N  0.32376291  0.80694960  0.02903504    -0.43650
C904        C  0.44392659  0.96551938  0.17272721    -0.00070
C905        C  0.41976984  0.94603763  0.20241251    -0.11940
C906        C  0.39046372  0.91723833  0.19186058     0.02170
C907        C  0.38470423  0.90759658  0.15011094    -0.00150
C908        C  0.40280093  0.93446503  0.12113542    -0.11880
C909        C  0.43302637  0.96078021  0.13177791     0.02050
H910        H  0.42098142  0.95656911  0.23309041     0.15030
H911        H  0.39885324  0.92976790  0.08858152     0.15030
C912        C  0.45460488  0.97987867  0.09911950     0.36690
C913        C  0.36322095  0.90361899  0.22331510     0.36590
N914        N  0.47263231  0.99348134  0.07211669    -0.43660
N915        N  0.34056015  0.89367515  0.24842415    -0.43650
C916        C  0.10105303  0.59397341  0.34374079    -0.00070
C917        C  0.07319224  0.60477207  0.31363853    -0.11940
C918        C  0.04082981  0.57836442  0.30435387     0.02170
C919        C  0.03826400  0.53971073  0.32402798    -0.00150
C920        C  0.07056374  0.52978541  0.34984595    -0.11880
C921        C  0.10474414  0.55318261  0.34950693     0.02050
H922        H  0.07398836  0.63495312  0.30115309     0.15030
H923        H  0.07289492  0.50048480  0.36321219     0.15030
C924        C  0.14388671  0.53597585  0.34856937     0.36690
C925        C  0.00969130  0.59478172  0.27933215     0.36590
N926        N  0.17656600  0.52593425  0.34528843    -0.43660
N927        N  0.98524653  0.61090492  0.26057410    -0.43650
C928        C  0.14081452  0.59603692  0.40998486    -0.00070
C929        C  0.18201195  0.59047996  0.41477022    -0.11940
C930        C  0.19679730  0.55867134  0.43902040     0.02170
C931        C  0.17063924  0.53545763  0.46493542    -0.00150
C932        C  0.13036216  0.54230170  0.46210668    -0.11880
C933        C  0.11549746  0.57099462  0.43567252     0.02050
H934        H  0.20298742  0.60739503  0.39619412     0.15030
H935        H  0.11002289  0.52504553  0.48180193     0.15030
C936        C  0.07336586  0.56824053  0.43254311     0.36690
C937        C  0.23462779  0.54390978  0.42540011     0.36590
N938        N  0.03955997  0.56305399  0.42993571    -0.43660
N939        N  0.26323946  0.53260306  0.40946438    -0.43650
C940        C  0.09383905  0.65014858  0.39877950    -0.00070
C941        C  0.11131710  0.67118607  0.43104708    -0.11940
C942        C  0.09037281  0.67944916  0.46716372     0.02170
C943        C  0.04867973  0.66883174  0.47155872    -0.00150
C944        C  0.03244056  0.64744312  0.43876259    -0.11880
C945        C  0.05222673  0.64481861  0.40065190     0.02050
H946        H  0.14319224  0.67726969  0.42967035     0.15030
H947        H  0.00201262  0.63831988  0.44048440     0.15030
C948        C  0.02863017  0.65206331  0.36468944     0.36690
C949        C  0.11446459  0.70021317  0.49665071     0.36590
N950        N  0.01066484  0.66139224  0.33591012    -0.43660
N951        N  0.13439919  0.72014259  0.01707311    -0.43650
C952        C  0.08304269  0.85827358  0.39517074    -0.00070
C953        C  0.08291572  0.81843884  0.41048681    -0.11940
C954        C  0.05595404  0.80747722  0.44229783     0.02170
C955        C  0.02583782  0.83305294  0.45477023    -0.00150
C956        C  0.02934743  0.87296357  0.44484109    -0.11880
C957        C  0.05895693  0.88621825  0.41811465     0.02050
H958        H  0.10528364  0.79748575  0.40066397     0.15030
H959        H  0.01066424  0.89398791  0.46090972     0.15030
C960        C  0.06660290  0.92873808  0.42007730     0.36690
C961        C  0.06077317  0.77432873  0.46874085     0.36590
N962        N  0.07251439  0.96233986  0.42571617    -0.43660
N963        N  0.05663500  0.75299807  0.49632905    -0.43650
C964        C  0.08928768  0.90166126  0.33222651    -0.00070
C965        C  0.10309173  0.93354002  0.30706823    -0.11940
C966        C  0.07670821  0.96439293  0.29369871     0.02170
C967        C  0.03585282  0.96537813  0.30849467    -0.00150
C968        C  0.02435175  0.93140411  0.33074778    -0.11880
C969        C  0.04744263  0.89724934  0.33119470     0.02050
H970        H  0.13384785  0.93512001  0.29800523     0.15030
H971        H  0.99730627  0.93077508  0.34758021     0.15030
C972        C  0.03053817  0.86368669  0.31017892     0.36690
C973        C  0.09559044  0.99884996  0.27456111     0.36590
N974        N  0.01681667  0.83857705  0.29034098    -0.43660
N975        N  0.11202350  0.02706765  0.26185201    -0.43650
C976        C  0.14301974  0.89851493  0.39445162    -0.00070
C977        C  0.14922518  0.88176005  0.43422487    -0.11940
C978        C  0.17047153  0.90195976  0.46406987     0.02170
C979        C  0.17070686  0.94451075  0.46337482    -0.00150
C980        C  0.17248426  0.95943631  0.42195047    -0.11880
C981        C  0.16249175  0.93546680  0.38764145     0.02050
H982        H  0.14473115  0.84994347  0.43908446     0.15030
H983        H  0.18715606  0.98674238  0.41463115     0.15030
C984        C  0.18571617  0.94154326  0.35067143     0.36690
C985        C  0.20788255  0.88130198  0.46387205     0.36590
N986        N  0.20580557  0.94599223  0.32184216    -0.43660
N987        N  0.23646262  0.86259059  0.46019893    -0.43650
C988        C  0.36134050  0.61443002  0.41337359    -0.00070
C989        C  0.32147896  0.61399272  0.42760837    -0.11940
C990        C  0.30926987  0.58687953  0.45956862     0.02170
C991        C  0.33208888  0.55168518  0.46840212    -0.00150
C992        C  0.36886085  0.55072077  0.44860743    -0.11880
C993        C  0.38554161  0.58571891  0.43315687     0.02050
H994        H  0.30145666  0.63741725  0.41813257     0.15030
H995        H  0.38922813  0.52745465  0.45538838     0.15030
C996        C  0.42122741  0.59655929  0.45456379     0.36690
C997        C  0.27541187  0.59865632  0.48331710     0.36590
N998        N  0.44991903  0.60216629  0.47317278    -0.43660
N999        N  0.24872381  0.61124163  0.50140097    -0.43650
C1000       C  0.40867028  0.61871088  0.35248927    -0.00070
C1001       C  0.44439366  0.60385553  0.37012734    -0.11940
C1002       C  0.45830254  0.56515618  0.36214625     0.02170
C1003       C  0.45053493  0.54754481  0.32455413    -0.00150
C1004       C  0.42088601  0.56582561  0.30061542    -0.11880
C1005       C  0.39781056  0.59819963  0.31548453     0.02050
H1006       H  0.45759263  0.61857484  0.39548798     0.15030
H1007       H  0.41081246  0.54998018  0.27435757     0.15030
C1008       C  0.36079858  0.60388120  0.29453035     0.36690
C1009       C  0.46791843  0.53885593  0.39606634     0.36590
N1010       N  0.33081590  0.60594346  0.27732659    -0.43660
N1011       N  0.47303392  0.51585204  0.42236390    -0.43650
C1012       C  0.40314309  0.67793658  0.40672902    -0.00070
C1013       C  0.44211940  0.69075364  0.39695514    -0.11940
C1014       C  0.46856036  0.70441518  0.42813654     0.02170
C1015       C  0.45656951  0.70305103  0.47018263    -0.00150
C1016       C  0.41498981  0.71174047  0.47252252    -0.11880
C1017       C  0.38803819  0.69678038  0.44243624     0.02050
H1018       H  0.45164226  0.68937946  0.36534773     0.15030
H1019       H  0.40246270  0.72434239  0.50011352     0.15030
C1020       C  0.34597365  0.70316483  0.44792546     0.36690
C1021       C  0.50580515  0.72132046  0.41502865     0.36590
N1022       N  0.31232932  0.70937912  0.45208772    -0.43660
N1023       N  0.53699378  0.73016917  0.40239833    -0.43650
C1024       C  0.35733706  0.90563993  0.39906196    -0.00070
C1025       C  0.31825310  0.91631492  0.40943173    -0.11940
C1026       C  0.31183876  0.94542041  0.43976777     0.02170
C1027       C  0.34279295  0.96376798  0.46167583    -0.00150
C1028       C  0.38140530  0.95364818  0.45110290    -0.11880
C1029       C  0.38885232  0.92664980  0.41988590     0.02050
H1030       H  0.29310379  0.90231637  0.39440417     0.15030
H1031       H  0.40596558  0.96459648  0.46954874     0.15030
C1032       C  0.43013950  0.92021320  0.41210658     0.36690
C1033       C  0.27365155  0.95559690  0.45238947     0.36590
N1034       N  0.46381582  0.91571031  0.40797705    -0.43660
N1035       N  0.24747511  0.96965023  0.46913928    -0.43650
C1036       C  0.39433653  0.84469087  0.38932865    -0.00070
C1037       C  0.43107480  0.83257595  0.37599038    -0.11940
C1038       C  0.45953288  0.81813701  0.40303070     0.02170
C1039       C  0.45361431  0.81850608  0.44724020    -0.00150
C1040       C  0.41297674  0.82117179  0.45883325    -0.11880
C1041       C  0.38337750  0.83083386  0.42938899     0.02050
H1042       H  0.43770978  0.83269660  0.34408793     0.15030
H1043       H  0.40323593  0.81589889  0.48974192     0.15030
C1044       C  0.34184592  0.82537052  0.43928161     0.36690
C1045       C  0.49317012  0.80321660  0.38097530     0.36590
N1046       N  0.30814040  0.82002840  0.44481444    -0.43660
N1047       N  0.51751592  0.79198162  0.35877710    -0.43650
C1048       C  0.38747959  0.90288711  0.32947413    -0.00070
C1049       C  0.37116196  0.94098946  0.32544531    -0.11940
C1050       C  0.39657411  0.97427446  0.32616656     0.02170
C1051       C  0.43759649  0.97141397  0.31291174    -0.00150
C1052       C  0.44668678  0.93314141  0.29676122    -0.11880
C1053       C  0.42300793  0.89856736  0.30623833     0.02050
H1054       H  0.33997671  0.94473041  0.33356727     0.15030
H1055       H  0.47164310  0.93019280  0.27588863     0.15030
C1056       C  0.42755423  0.86427120  0.28005557     0.36690
C1057       C  0.37787802  0.00725424  0.34623082     0.36590
N1058       N  0.43072296  0.83691804  0.25878994    -0.43660
N1059       N  0.35911270  0.03137683  0.36224765    -0.43650
N1060       N  0.17068332  0.69185912  0.71255067    -0.06030
N1061       N  0.14313841  0.67860523  0.68651587    -0.58150
N1062       N  0.19803088  0.67061082  0.80846442    -0.05710
N1063       N  0.18718306  0.64041847  0.83318968    -0.60280
N1064       N  0.16930522  0.69743362  0.80697915    -0.05310
N1065       N  0.13944843  0.68591158  0.83146656    -0.58130
N1066       N  0.20036695  0.66609030  0.71406538    -0.04990
N1067       N  0.19326453  0.63602927  0.68829346    -0.60630
C1068       C  0.15780178  0.64443243  0.66987643     0.96150
C1069       C  0.15107873  0.65070070  0.84877914     0.95920
N1070       N  0.32460784  0.70731410  0.80775974    -0.06220
N1071       N  0.35553230  0.70159341  0.83244662    -0.58730
N1072       N  0.29828648  0.67221536  0.71476794    -0.04340
N1073       N  0.30897495  0.64359240  0.68894915    -0.59980
N1074       N  0.32402417  0.70219008  0.71222032    -0.06250
N1075       N  0.35220346  0.69410654  0.68467757    -0.59000
N1076       N  0.29800662  0.67824816  0.81239242    -0.03980
N1077       N  0.31076921  0.65289314  0.84156359    -0.60070
Mn1078     Mn  0.24885820  0.67139658  0.76278259     1.18440
C1079       C  0.34706524  0.66767949  0.85417791     0.98230
C1080       C  0.34226267  0.65763921  0.66913034     0.98890
N1081       N  0.16291133  0.79719279  0.80150609    -0.06270
N1082       N  0.13219213  0.80842646  0.82507670    -0.62570
N1083       N  0.19181693  0.82232603  0.70549039    -0.05070
N1084       N  0.18013757  0.85091085  0.67953161    -0.63250
N1085       N  0.16498627  0.79297580  0.70666574    -0.05770
N1086       N  0.13499112  0.80172808  0.68146726    -0.62840
N1087       N  0.19020057  0.82610680  0.80003995    -0.04670
N1088       N  0.17813644  0.85666507  0.82258072    -0.63530
Mn1089     Mn  0.16677302  0.74474518  0.75685259     1.10660
C1090       C  0.14218349  0.84560980  0.83906619     0.99450
C1091       C  0.14446256  0.83810629  0.66440541     0.99530
N1092       N  0.32027222  0.79942659  0.70775757    -0.05780
N1093       N  0.35033788  0.80936331  0.68273944    -0.61150
N1094       N  0.29009896  0.83046112  0.80110536    -0.05100
N1095       N  0.30105750  0.86065973  0.82542457    -0.57880
N1096       N  0.31755855  0.80247233  0.80223955    -0.06410
N1097       N  0.34635575  0.81273944  0.82760846    -0.60720
N1098       N  0.29165061  0.82618847  0.70534704    -0.05400
N1099       N  0.30212652  0.85432495  0.67792238    -0.57910
Mn1100     Mn  0.32118584  0.75277165  0.75722298     1.20190
Mn1101     Mn  0.24103273  0.82655779  0.75296987     1.10090
Cl1102     Cl  0.24399987  0.74890227  0.75734740    -0.85880
C1103       C  0.33887765  0.84356279  0.66362989     0.96460
C1104       C  0.33599365  0.84869568  0.84300567     0.96250
C1105       C  0.36816916  0.87495430  0.86431392    -0.02400
C1106       C  0.37946911  0.64522683  0.88088008    -0.02400
C1107       C  0.11500716  0.87550527  0.86366919    -0.02400
C1108       C  0.12229614  0.62298139  0.87423220    -0.02400
C1109       C  0.46841440  0.50702981  0.81406181     0.00650
C1110       C  0.01096463  0.50434505  0.81230664     0.00650
C1111       C  0.36470341  0.86825556  0.63198365    -0.02400
C1112       C  0.11912310  0.86153609  0.63163065    -0.02400
C1113       C  0.48963347  0.81936217  0.97764049     0.00650
C1114       C  0.49070378  0.81709474  0.52128431     0.00650
C1115       C  0.13554660  0.61608618  0.63840968    -0.02400
C1116       C  0.47275845  0.49873366  0.68356657     0.00650
C1117       C  0.01447284  0.49171094  0.68163045     0.00650
C1118       C  0.17601755  0.97017928  0.50411042     0.00650
C1119       C  0.18140919  0.51283108  0.50346148     0.00650
C1120       C  0.48140885  0.68864093  0.50993398     0.00650
C1121       C  0.02246003  0.67626309  0.50985709     0.00650
C1122       C  0.37042055  0.63330345  0.63999528    -0.02400
C1123       C  0.33545562  0.98214898  0.50366709     0.00650
C1124       C  0.32716483  0.52351904  0.50583260     0.00650
C1125       C  0.33432919  0.54631782  0.54439668    -0.00070
C1126       C  0.30385977  0.56631882  0.56584003    -0.11940
C1127       C  0.31248854  0.59339928  0.59813110     0.02170
C1128       C  0.35272512  0.59990085  0.61068532    -0.00150
C1129       C  0.38215407  0.57827639  0.58858619    -0.11880
C1130       C  0.37370540  0.55312948  0.55633327     0.02050
H1131       H  0.27338710  0.56166299  0.55651125     0.15030
H1132       H  0.41332437  0.58451291  0.59291193     0.15030
C1133       C  0.40676017  0.53758648  0.53335412     0.36690
C1134       C  0.28028861  0.61776076  0.61218691     0.36590
N1135       N  0.43285390  0.52622545  0.51343589    -0.43660
N1136       N  0.25427635  0.63800442  0.62204691    -0.43650
C1137       C  0.45370475  0.67999170  0.54838866    -0.00070
C1138       C  0.41684996  0.66099377  0.54006461    -0.11940
C1139       C  0.38458947  0.66292404  0.56680903     0.02170
C1140       C  0.39154216  0.66438372  0.60923761    -0.00150
C1141       C  0.42507232  0.68754975  0.61941200    -0.11880
C1142       C  0.45695012  0.69357510  0.59042616     0.02050
H1143       H  0.41036842  0.64938684  0.51032886     0.15030
H1144       H  0.43000197  0.69375856  0.65173672     0.15030
C1145       C  0.49297726  0.70533850  0.61017372     0.36690
C1146       C  0.34492988  0.66483566  0.55008480     0.36590
N1147       N  0.51874952  0.71333447  0.63225916    -0.43660
N1148       N  0.31323158  0.66777861  0.53665666    -0.43650
C1149       C  0.45091340  0.53908539  0.68416250    -0.00070
C1150       C  0.41173419  0.54165931  0.70009747    -0.11940
C1151       C  0.38612504  0.57385345  0.69087357     0.02170
C1152       C  0.40009001  0.60778242  0.66752681    -0.00150
C1153       C  0.44135041  0.60716338  0.65821514    -0.11880
C1154       C  0.46239504  0.57150657  0.65928572     0.02050
H1155       H  0.39890381  0.51676328  0.71693218     0.15030
H1156       H  0.45583101  0.62937953  0.63984669     0.15030
C1157       C  0.49091355  0.56611302  0.62775201     0.36690
C1158       C  0.34440684  0.56660111  0.69933560     0.36690
N1159       N  0.51440036  0.55989661  0.60311037    -0.43660
N1160       N  0.31117294  0.55896322  0.70571683    -0.43650
C1161       C  0.04477302  0.66235566  0.54797375    -0.00070
C1162       C  0.06801963  0.68961738  0.57053204    -0.11940
C1163       C  0.09739395  0.67770287  0.59928281     0.02170
C1164       C  0.10359811  0.63627916  0.60835858    -0.00150
C1165       C  0.08176070  0.60944038  0.58314337    -0.11880
C1166       C  0.05387188  0.62181184  0.55343747     0.02050
H1167       H  0.06438171  0.72124005  0.56449465     0.15030
H1168       H  0.08800320  0.57776211  0.58550817     0.15030
C1169       C  0.03504371  0.59169480  0.52856249     0.36690
C1170       C  0.12387405  0.70927966  0.61207838     0.36590
N1171       N  0.01913871  0.56607473  0.51135723    -0.43660
N1172       N  0.14496764  0.73557467  0.62033775    -0.43650
C1173       C  0.16714885  0.59674579  0.60746927    -0.00070
C1174       C  0.19026695  0.56218077  0.61396098    -0.11940
C1175       C  0.19807116  0.53524890  0.58101520     0.02170
C1176       C  0.18313748  0.54265611  0.54075006    -0.00150
C1177       C  0.17306922  0.58378346  0.53446592    -0.11880
C1178       C  0.17045540  0.61085715  0.56684270     0.02050
H1179       H  0.20202953  0.55600100  0.64434055     0.15030
H1180       H  0.17001519  0.59700103  0.50427981     0.15030
C1181       C  0.18307409  0.65160158  0.55972148     0.36690
C1182       C  0.22418167  0.50290694  0.58889703     0.36590
N1183       N  0.19672581  0.68324607  0.55501275    -0.43660
N1184       N  0.24424689  0.47618401  0.59657145    -0.43650
C1185       C  0.10949436  0.58397502  0.66395528    -0.00070
C1186       C  0.11777438  0.54265420  0.66523985    -0.11940
C1187       C  0.08934454  0.51338265  0.67662185     0.02170
C1188       C  0.04914882  0.52333477  0.68471535    -0.00150
C1189       C  0.04438040  0.56380126  0.69457344    -0.11880
C1190       C  0.07300790  0.59392814  0.68401385     0.02050
H1191       H  0.14713239  0.53177387  0.66210762     0.15030
H1192       H  0.01703002  0.57248551  0.70777715     0.15030
C1193       C  0.06302164  0.63472025  0.69312400     0.36690
C1194       C  0.10538750  0.47654027  0.69201519     0.36590
N1195       N  0.05453977  0.66713156  0.70133409    -0.43660
N1196       N  0.11944689  0.94935583  0.70861133    -0.43650
C1197       C  0.09900805  0.83112605  0.60139683    -0.00070
C1198       C  0.06504582  0.81051883  0.61597358    -0.11940
C1199       C  0.03066144  0.80568907  0.59155951     0.02170
C1200       C  0.02972241  0.81865385  0.54886537    -0.00150
C1201       C  0.06660471  0.83565457  0.53500345    -0.11880
C1202       C  0.10138190  0.83539978  0.55848115     0.02050
H1203       H  0.06273066  0.80469728  0.64884643     0.15030
H1204       H  0.07099853  0.84999665  0.50604237     0.15030
C1205       C  0.13735954  0.82514294  0.53685012     0.36690
C1206       C  0.99639934  0.79396837  0.61580115     0.36590
N1207       N  0.16566773  0.81531815  0.51931750    -0.43660
N1208       N  0.47102296  0.78549321  0.63870263    -0.43650
C1209       C  0.17192290  0.94603865  0.54468885    -0.00070
C1210       C  0.14557629  0.95748014  0.57616481    -0.11940
C1211       C  0.14446118  0.93470455  0.61301483     0.02170
C1212       C  0.14761749  0.89281970  0.60884570    -0.00150
C1213       C  0.17988071  0.88257948  0.58394204    -0.11880
C1214       C  0.19365836  0.91047327  0.55385840     0.02050
H1215       H  0.13263575  0.98687242  0.57540342     0.15030
H1216       H  0.19384210  0.85369619  0.58767462     0.15030
C1217       C  0.23329227  0.90579336  0.54023500     0.36690
C1218       C  0.17142766  0.94984263  0.64377810     0.36590
N1219       N  0.26512124  0.90023686  0.52884142    -0.43660
N1220       N  0.19383361  0.96091327  0.66829247    -0.43650
C1221       C  0.08208988  0.88651023  0.64763086    -0.00070
C1222       C  0.06322017  0.90992395  0.61736271    -0.11940
C1223       C  0.04336386  0.94472046  0.62756294     0.02170
C1224       C  0.02847295  0.95032291  0.66795905    -0.00150
C1225       C  0.03697531  0.91950154  0.69708476    -0.11880
C1226       C  0.06541170  0.88902542  0.68787431     0.02050
H1227       H  0.07237773  0.90665082  0.58552948     0.15030
H1228       H  0.02678058  0.92281611  0.72849959     0.15030
C1229       C  0.08051251  0.86487062  0.72097922     0.36690
C1230       C  0.04933076  0.97662496  0.59799052     0.36590
N1231       N  0.09387394  0.84574295  0.74725683    -0.43660
N1232       N  0.05721908  0.99954001  0.57218760    -0.43650
C1233       C  0.45421880  0.82616016  0.54613033    -0.00070
C1234       C  0.42575705  0.79704088  0.55953465    -0.11940
C1235       C  0.39713815  0.80648173  0.59061951     0.02170
C1236       C  0.40044613  0.84344193  0.61215885    -0.00150
C1237       C  0.43783533  0.86271317  0.60634203    -0.11880
C1238       C  0.45647719  0.86155608  0.56831833     0.02050
H1239       H  0.42602097  0.76766949  0.54615699     0.15030
H1240       H  0.45080042  0.88203534  0.62918077     0.15030
C1241       C  0.48230335  0.89408066  0.55494555     0.36690
C1242       C  0.36708082  0.77695713  0.60119189     0.36590
N1243       N  0.50299691  0.91894879  0.54165566    -0.43660
N1244       N  0.34288590  0.75313233  0.60912347    -0.43650
C1245       C  0.33665078  0.94984904  0.53916046    -0.00070
C1246       C  0.34602553  0.90933459  0.52830749    -0.11940
C1247       C  0.34331979  0.87709926  0.55625338     0.02170
C1248       C  0.33609127  0.88410282  0.59784361    -0.00150
C1249       C  0.31593221  0.91956098  0.60616899    -0.11880
C1250       C  0.32295326  0.95356712  0.58090281     0.02050
H1251       H  0.35169339  0.90038700  0.49717543     0.15030
H1252       H  0.30669390  0.92408588  0.63789306     0.15030
C1253       C  0.32772162  0.98805808  0.60590181     0.36690
C1254       C  0.33339682  0.83821952  0.54049226     0.36590
N1255       N  0.33194905  0.01171695  0.63112852    -0.43660
N1256       N  0.32376291  0.80694959  0.52903504    -0.43650
C1257       C  0.44392659  0.96551938  0.67272720    -0.00070
C1258       C  0.41976984  0.94603763  0.70241251    -0.11940
C1259       C  0.39046372  0.91723833  0.69186058     0.02170
C1260       C  0.38470423  0.90759658  0.65011094    -0.00150
C1261       C  0.40280093  0.93446503  0.62113541    -0.11880
C1262       C  0.43302637  0.96078021  0.63177790     0.02050
H1263       H  0.42098142  0.95656911  0.73309041     0.15030
H1264       H  0.39885324  0.92976790  0.58858152     0.15030
C1265       C  0.45460488  0.97987867  0.59911949     0.36690
C1266       C  0.36322095  0.90361899  0.72331509     0.36590
N1267       N  0.47263231  0.99348134  0.57211669    -0.43660
N1268       N  0.34056015  0.89367515  0.74842414    -0.43650
C1269       C  0.10105303  0.59397341  0.84374079    -0.00070
C1270       C  0.07319224  0.60477207  0.81363853    -0.11940
C1271       C  0.04082981  0.57836443  0.80435387     0.02170
C1272       C  0.03826400  0.53971073  0.82402798    -0.00150
C1273       C  0.07056374  0.52978541  0.84984595    -0.11880
C1274       C  0.10474414  0.55318262  0.84950693     0.02050
H1275       H  0.07398836  0.63495313  0.80115309     0.15030
H1276       H  0.07289492  0.50048481  0.86321219     0.15030
C1277       C  0.14388671  0.53597585  0.84856937     0.36690
C1278       C  0.00969130  0.59478172  0.77933215     0.36590
N1279       N  0.17656600  0.52593426  0.84528843    -0.43660
N1280       N  0.98524653  0.61090492  0.76057410    -0.43650
C1281       C  0.14081452  0.59603693  0.90998486    -0.00070
C1282       C  0.18201195  0.59047996  0.91477022    -0.11940
C1283       C  0.19679730  0.55867134  0.93902040     0.02170
C1284       C  0.17063924  0.53545763  0.96493542    -0.00150
C1285       C  0.13036216  0.54230171  0.96210668    -0.11880
C1286       C  0.11549746  0.57099463  0.93567252     0.02050
H1287       H  0.20298742  0.60739504  0.89619413     0.15030
H1288       H  0.11002289  0.52504554  0.98180193     0.15030
C1289       C  0.07336586  0.56824054  0.93254310     0.36690
C1290       C  0.23462779  0.54390978  0.92540012     0.36590
N1291       N  0.03955996  0.56305400  0.92993571    -0.43660
N1292       N  0.26323946  0.53260306  0.90946438    -0.43650
C1293       C  0.09383905  0.65014858  0.89877950    -0.00070
C1294       C  0.11131710  0.67118607  0.93104708    -0.11940
C1295       C  0.09037281  0.67944916  0.96716372     0.02170
C1296       C  0.04867973  0.66883174  0.97155872    -0.00150
C1297       C  0.03244056  0.64744312  0.93876259    -0.11880
C1298       C  0.05222673  0.64481862  0.90065190     0.02050
H1299       H  0.14319224  0.67726970  0.92967035     0.15030
H1300       H  0.00201262  0.63831989  0.94048440     0.15030
C1301       C  0.02863017  0.65206332  0.86468944     0.36690
C1302       C  0.11446459  0.70021316  0.99665072     0.36590
N1303       N  0.01066484  0.66139225  0.83591012    -0.43660
N1304       N  0.13439919  0.72014260  0.51707311    -0.43650
C1305       C  0.08304270  0.85827358  0.89517074    -0.00070
C1306       C  0.08291572  0.81843884  0.91048681    -0.11940
C1307       C  0.05595405  0.80747722  0.94229783     0.02170
C1308       C  0.02583783  0.83305295  0.95477023    -0.00150
C1309       C  0.02934744  0.87296358  0.94484109    -0.11880
C1310       C  0.05895693  0.88621825  0.91811464     0.02050
H1311       H  0.10528364  0.79748575  0.90066397     0.15030
H1312       H  0.01066425  0.89398791  0.96090972     0.15030
C1313       C  0.06660291  0.92873808  0.92007729     0.36690
C1314       C  0.06077318  0.77432874  0.96874085     0.36590
N1315       N  0.07251440  0.96233986  0.92571617    -0.43660
N1316       N  0.05663501  0.75299807  0.99632905    -0.43650
C1317       C  0.08928769  0.90166126  0.83222650    -0.00070
C1318       C  0.10309174  0.93354002  0.80706823    -0.11940
C1319       C  0.07670822  0.96439293  0.79369870     0.02170
C1320       C  0.03585282  0.96537813  0.80849466    -0.00150
C1321       C  0.02435176  0.93140411  0.83074777    -0.11880
C1322       C  0.04744264  0.89724934  0.83119469     0.02050
H1323       H  0.13384786  0.93512001  0.79800523     0.15030
H1324       H  0.99730627  0.93077507  0.84758020     0.15030
C1325       C  0.03053818  0.86368669  0.81017891     0.36690
C1326       C  0.09559045  0.99884996  0.77456111     0.36590
N1327       N  0.01681668  0.83857705  0.79034096    -0.43660
N1328       N  0.11202351  0.02706765  0.76185201    -0.43650
C1329       C  0.14301974  0.89851493  0.89445162    -0.00070
C1330       C  0.14922519  0.88176004  0.93422486    -0.11940
C1331       C  0.17047152  0.90195975  0.96406988     0.02170
C1332       C  0.17070686  0.94451074  0.96337482    -0.00150
C1333       C  0.17248426  0.95943630  0.92195048    -0.11880
C1334       C  0.16249176  0.93546680  0.88764145     0.02050
H1335       H  0.14473116  0.84994345  0.93908444     0.15030
H1336       H  0.18715606  0.98674237  0.91463115     0.15030
C1337       C  0.18571618  0.94154326  0.85067143     0.36690
C1338       C  0.20788253  0.88130195  0.96387210     0.36590
N1339       N  0.20580558  0.94599223  0.82184216    -0.43660
N1340       N  0.23646259  0.86259054  0.96019903    -0.43650
C1341       C  0.36134050  0.61443002  0.91337359    -0.00070
C1342       C  0.32147896  0.61399272  0.92760837    -0.11940
C1343       C  0.30926987  0.58687953  0.95956862     0.02170
C1344       C  0.33208888  0.55168518  0.96840212    -0.00150
C1345       C  0.36886085  0.55072077  0.94860743    -0.11880
C1346       C  0.38554162  0.58571891  0.93315687     0.02050
H1347       H  0.30145666  0.63741726  0.91813257     0.15030
H1348       H  0.38922813  0.52745465  0.95538838     0.15030
C1349       C  0.42122741  0.59655930  0.95456379     0.36690
C1350       C  0.27541187  0.59865632  0.98331710     0.36590
N1351       N  0.44991903  0.60216629  0.97317279    -0.43660
N1352       N  0.24872381  0.61124163  0.00140097    -0.43650
C1353       C  0.40867028  0.61871088  0.85248927    -0.00070
C1354       C  0.44439366  0.60385553  0.87012734    -0.11940
C1355       C  0.45830254  0.56515617  0.86214625     0.02170
C1356       C  0.45053494  0.54754481  0.82455413    -0.00150
C1357       C  0.42088601  0.56582561  0.80061541    -0.11880
C1358       C  0.39781056  0.59819963  0.81548453     0.02050
H1359       H  0.45759263  0.61857484  0.89548798     0.15030
H1360       H  0.41081247  0.54998019  0.77435757     0.15030
C1361       C  0.36079859  0.60388121  0.79453035     0.36690
C1362       C  0.46791843  0.53885593  0.89606634     0.36590
N1363       N  0.33081590  0.60594347  0.77732658    -0.43660
N1364       N  0.47303392  0.51585204  0.92236390    -0.43650
C1365       C  0.40314310  0.67793658  0.90672902    -0.00070
C1366       C  0.44211940  0.69075364  0.89695514    -0.11940
C1367       C  0.46856036  0.70441518  0.92813654     0.02170
C1368       C  0.45656951  0.70305103  0.97018263    -0.00150
C1369       C  0.41498981  0.71174048  0.97252252    -0.11880
C1370       C  0.38803819  0.69678038  0.94243624     0.02050
H1371       H  0.45164227  0.68937946  0.86534773     0.15030
H1372       H  0.40246270  0.72434239  0.00011352     0.15030
C1373       C  0.34597365  0.70316483  0.94792546     0.36690
C1374       C  0.50580515  0.72132046  0.91502865     0.36590
N1375       N  0.31232932  0.70937912  0.95208771    -0.43660
N1376       N  0.53699378  0.73016917  0.90239833    -0.43650
C1377       C  0.35733706  0.90563993  0.89906196    -0.00070
C1378       C  0.31825310  0.91631492  0.90943173    -0.11940
C1379       C  0.31183876  0.94542041  0.93976777     0.02170
C1380       C  0.34279295  0.96376798  0.96167583    -0.00150
C1381       C  0.38140530  0.95364818  0.95110290    -0.11880
C1382       C  0.38885232  0.92664980  0.91988590     0.02050
H1383       H  0.29310379  0.90231637  0.89440417     0.15030
H1384       H  0.40596558  0.96459649  0.96954873     0.15030
C1385       C  0.43013950  0.92021320  0.91210658     0.36690
C1386       C  0.27365155  0.95559689  0.95238948     0.36590
N1387       N  0.46381582  0.91571031  0.90797705    -0.43660
N1388       N  0.24747511  0.96965021  0.96913929    -0.43650
C1389       C  0.39433653  0.84469087  0.88932865    -0.00070
C1390       C  0.43107480  0.83257595  0.87599038    -0.11940
C1391       C  0.45953287  0.81813701  0.90303070     0.02170
C1392       C  0.45361430  0.81850608  0.94724020    -0.00150
C1393       C  0.41297674  0.82117179  0.95883325    -0.11880
C1394       C  0.38337750  0.83083386  0.92938899     0.02050
H1395       H  0.43770978  0.83269660  0.84408793     0.15030
H1396       H  0.40323593  0.81589889  0.98974192     0.15030
C1397       C  0.34184592  0.82537053  0.93928162     0.36690
C1398       C  0.49317012  0.80321660  0.88097531     0.36590
N1399       N  0.30814040  0.82002842  0.94481444    -0.43660
N1400       N  0.51751591  0.79198162  0.85877710    -0.43650
C1401       C  0.38747959  0.90288711  0.82947413    -0.00070
C1402       C  0.37116196  0.94098946  0.82544530    -0.11940
C1403       C  0.39657411  0.97427446  0.82616656     0.02170
C1404       C  0.43759649  0.97141397  0.81291173    -0.00150
C1405       C  0.44668678  0.93314141  0.79676122    -0.11880
C1406       C  0.42300793  0.89856736  0.80623832     0.02050
H1407       H  0.33997671  0.94473041  0.83356726     0.15030
H1408       H  0.47164310  0.93019280  0.77588863     0.15030
C1409       C  0.42755423  0.86427120  0.78005556     0.36690
C1410       C  0.37787802  0.00725424  0.84623082     0.36590
N1411       N  0.43072296  0.83691804  0.75878994    -0.43660
N1412       N  0.35911271  0.03137683  0.86224765    -0.43650
N1413       N  0.67068370  0.19185879  0.21255104    -0.06030
N1414       N  0.64313872  0.17860470  0.18651643    -0.58150
N1415       N  0.69803199  0.17061082  0.30846470    -0.05710
N1416       N  0.68718467  0.14041866  0.33319040    -0.60280
N1417       N  0.66930614  0.19743344  0.30697949    -0.05310
N1418       N  0.63944972  0.18591145  0.33146738    -0.58130
N1419       N  0.70036749  0.16609014  0.21406561    -0.04990
N1420       N  0.69326513  0.13602908  0.18829371    -0.60630
C1421       C  0.65780222  0.14443201  0.16987690     0.96150
C1422       C  0.65108047  0.15070083  0.34878017     0.95920
N1423       N  0.82460855  0.20731418  0.30775967    -0.06220
N1424       N  0.85553319  0.20159374  0.33244636    -0.58730
N1425       N  0.79828694  0.17221558  0.21476759    -0.04340
N1426       N  0.80897538  0.14359274  0.18894863    -0.59980
N1427       N  0.82402459  0.20219034  0.21222010    -0.06250
N1428       N  0.85220385  0.19410691  0.18467726    -0.59000
N1429       N  0.79800768  0.17824791  0.31239224    -0.03980
N1430       N  0.81077080  0.15289276  0.34156305    -0.60070
Mn1431     Mn  0.74885896  0.17139652  0.26278257     1.18440
C1432       C  0.84706668  0.16767956  0.35417742     0.98230
C1433       C  0.84226307  0.15763963  0.16912983     0.98890
N1434       N  0.66291089  0.29719251  0.30150637    -0.06270
N1435       N  0.63219149  0.30842608  0.32507678    -0.62570
N1436       N  0.69181671  0.32232597  0.20549066    -0.05070
N1437       N  0.68013741  0.35091079  0.17953184    -0.63250
N1438       N  0.66498611  0.29297567  0.20666592    -0.05770
N1439       N  0.63499103  0.30172796  0.18146733    -0.62840
N1440       N  0.69019998  0.32610665  0.30004030    -0.04670
N1441       N  0.67813555  0.35666492  0.32258092    -0.63530
Mn1442     Mn  0.66677316  0.24474492  0.25685286     1.10660
C1443       C  0.64218254  0.34560953  0.33906623     0.99450
C1444       C  0.64446248  0.33810621  0.16440549     0.99530
N1445       N  0.82027200  0.29942681  0.20775813    -0.05780
N1446       N  0.85033767  0.30936371  0.18274013    -0.61150
N1447       N  0.79009830  0.33046074  0.30110597    -0.05100
N1448       N  0.80105643  0.36065907  0.32542570    -0.57880
N1449       N  0.81755801  0.30247207  0.30224004    -0.06410
N1450       N  0.84635486  0.31273893  0.32760944    -0.60720
N1451       N  0.79165032  0.32618863  0.20534770    -0.05400
N1452       N  0.80212620  0.35432524  0.17792320    -0.57910
Mn1453     Mn  0.82118593  0.25277175  0.25722314     1.20190
Mn1454     Mn  0.74103231  0.32655769  0.25297035     1.10090
Cl1455     Cl  0.74399999  0.24890218  0.25734758    -0.85880
C1456       C  0.83887738  0.34356322  0.16363076     0.96460
C1457       C  0.83599241  0.34869490  0.34300704     0.96250
C1458       C  0.86816777  0.37495351  0.36431534    -0.02400
C1459       C  0.87947089  0.14522730  0.38087958    -0.02400
C1460       C  0.61500593  0.37550494  0.36366914    -0.02400
C1461       C  0.62229807  0.12298137  0.37423313    -0.02400
C1462       C  0.96841648  0.00703067  0.31406115     0.00650
C1463       C  0.51096671  0.00434583  0.31230611     0.00650
C1464       C  0.86470295  0.36825594  0.13198443    -0.02400
C1465       C  0.61912306  0.36153610  0.13163068    -0.02400
C1466       C  0.98963270  0.31936181  0.47764121     0.00650
C1467       C  0.99070317  0.31709465  0.02128503     0.00650
C1468       C  0.63554711  0.11608575  0.13841011    -0.02400
C1469       C  0.97275839  0.99873353  0.18356645     0.00650
C1470       C  0.51447279  0.99171080  0.18163047     0.00650
C1471       C  0.67601626  0.47017957  0.00410983     0.00650
C1472       C  0.68141083  0.01283072  0.00346211     0.00650
C1473       C  0.98141000  0.18864123  0.00993393     0.00650
C1474       C  0.52246113  0.17626323  0.00985734     0.00650
C1475       C  0.87042105  0.13330389  0.13999476    -0.02400
C1476       C  0.83545412  0.48214875  0.00366797     0.00650
C1477       C  0.82716633  0.02351929  0.00583177     0.00650
C1478       C  0.83433045  0.04631806  0.04439591    -0.00070
C1479       C  0.80386084  0.06631871  0.06583934    -0.11940
C1480       C  0.81248939  0.09339931  0.09813036     0.02170
C1481       C  0.85272592  0.09990143  0.11068441    -0.00150
C1482       C  0.88215508  0.07827735  0.08858517    -0.11880
C1483       C  0.87370662  0.05313016  0.05633242     0.02050
H1484       H  0.77338818  0.06166249  0.05651065     0.15030
H1485       H  0.91332533  0.08451425  0.09291086     0.15030
C1486       C  0.90676150  0.03758712  0.03335346     0.36690
C1487       C  0.78028921  0.11776031  0.11218645     0.36590
N1488       N  0.93285528  0.02622597  0.01343537    -0.43660
N1489       N  0.75427676  0.13800358  0.12204674    -0.43650
C1490       C  0.95370558  0.17999230  0.04838848    -0.00070
C1491       C  0.91685054  0.16099489  0.04006429    -0.11940
C1492       C  0.88459010  0.16292517  0.06680880     0.02170
C1493       C  0.89154290  0.16438431  0.10923739    -0.00150
C1494       C  0.92507325  0.18754996  0.11941195    -0.11880
C1495       C  0.95695105  0.19357536  0.09042611     0.02050
H1496       H  0.91036888  0.14938804  0.01032852     0.15030
H1497       H  0.93000294  0.19375855  0.15173670     0.15030
C1498       C  0.99297813  0.20533898  0.11017364     0.36690
C1499       C  0.84493045  0.16483674  0.05008469     0.36590
N1500       N  0.01875034  0.21333517  0.13225906    -0.43660
N1501       N  0.81323211  0.16777965  0.03665663    -0.43650
C1502       C  0.95091327  0.03908523  0.18416213    -0.00070
C1503       C  0.91173388  0.04165914  0.20009668    -0.11940
C1504       C  0.88612488  0.07385338  0.19087269     0.02170
C1505       C  0.90009018  0.10778251  0.16752633    -0.00150
C1506       C  0.94135063  0.10716335  0.15821499    -0.11880
C1507       C  0.96239512  0.07150645  0.15928549     0.02050
H1508       H  0.89890341  0.01676322  0.21693155     0.15030
H1509       H  0.95583147  0.12937957  0.13984682     0.15030
C1510       C  0.99091377  0.06611296  0.12775191     0.36690
C1511       C  0.84440661  0.06660113  0.19933444     0.36690
N1512       N  0.01440071  0.05989670  0.10311035    -0.43660
N1513       N  0.81117267  0.05896340  0.20571568    -0.43650
C1514       C  0.54477389  0.16235560  0.04797406    -0.00070
C1515       C  0.56802054  0.18961719  0.07053245    -0.11940
C1516       C  0.59739476  0.17770257  0.09928323     0.02170
C1517       C  0.60359886  0.13627882  0.10835886    -0.00150
C1518       C  0.58176148  0.10944014  0.08314353    -0.11880
C1519       C  0.55387270  0.12181174  0.05343764     0.02050
H1520       H  0.56438270  0.22123989  0.06449516     0.15030
H1521       H  0.58800389  0.07776185  0.08550827     0.15030
C1522       C  0.53504451  0.09169481  0.02856256     0.36690
C1523       C  0.62387484  0.20927931  0.11207896     0.36590
N1524       N  0.51913948  0.06607481  0.01135720    -0.43660
N1525       N  0.64496841  0.23557430  0.12033847    -0.43650
C1526       C  0.66714947  0.09674524  0.10746987    -0.00070
C1527       C  0.69026753  0.06218023  0.11396182    -0.11940
C1528       C  0.69807220  0.03524840  0.08101611     0.02170
C1529       C  0.68313903  0.04265570  0.04075076    -0.00150
C1530       C  0.67307096  0.08378307  0.03446655    -0.11880
C1531       C  0.67045646  0.11085668  0.06684334     0.02050
H1532       H  0.70202978  0.05600046  0.14434153     0.15030
H1533       H  0.67001735  0.09700070  0.00428041     0.15030
C1534       C  0.68307466  0.15160127  0.05972217     0.36690
C1535       C  0.72418275  0.00290653  0.08889833     0.36590
N1536       N  0.69672598  0.18324591  0.05501342    -0.43660
N1537       N  0.74424810  0.97618385  0.09657336    -0.43650
C1538       C  0.60949460  0.08397468  0.16395560    -0.00070
C1539       C  0.61777448  0.04265384  0.16524026    -0.11940
C1540       C  0.58934454  0.01338239  0.17662227     0.02170
C1541       C  0.54914881  0.02333457  0.18471555    -0.00150
C1542       C  0.54438040  0.06380109  0.19457346    -0.11880
C1543       C  0.57300803  0.09392791  0.18401393     0.02050
H1544       H  0.64713244  0.03177339  0.16210798     0.15030
H1545       H  0.51702993  0.07248536  0.20777698     0.15030
C1546       C  0.56302177  0.13472008  0.19312382     0.36690
C1547       C  0.60538733  0.97653992  0.19201554     0.36590
N1548       N  0.55453991  0.16713144  0.20133369    -0.43660
N1549       N  0.61944713  0.44935629  0.20861111    -0.43650
C1550       C  0.59900787  0.33112609  0.10139689    -0.00070
C1551       C  0.56504569  0.31051888  0.11597385    -0.11940
C1552       C  0.53066112  0.30568924  0.09156004     0.02170
C1553       C  0.52972187  0.31865396  0.04886591    -0.00150
C1554       C  0.56660399  0.33565486  0.03500378    -0.11880
C1555       C  0.60138137  0.33539999  0.05848117     0.02050
H1556       H  0.56273071  0.30469732  0.14884671     0.15030
H1557       H  0.57099749  0.34999710  0.00604273     0.15030
C1558       C  0.63735886  0.32514357  0.03684965     0.36690
C1559       C  0.49639909  0.29396873  0.11580190     0.36590
N1560       N  0.66566695  0.31531924  0.01931654    -0.43660
N1561       N  0.97102279  0.28549360  0.13870347    -0.43650
C1562       C  0.67192202  0.44603871  0.04468827    -0.00070
C1563       C  0.64557580  0.45748016  0.07616463    -0.11940
C1564       C  0.64446112  0.43470457  0.11301468     0.02170
C1565       C  0.64761742  0.39281972  0.10884560    -0.00150
C1566       C  0.67988034  0.38257953  0.08394154    -0.11880
C1567       C  0.69365754  0.41047322  0.05385753     0.02050
H1568       H  0.63263527  0.48687244  0.07540344     0.15030
H1569       H  0.69384176  0.35369623  0.08767398     0.15030
C1570       C  0.73329125  0.40579300  0.04023352     0.36690
C1571       C  0.67142778  0.44984274  0.14377774     0.36590
N1572       N  0.76512014  0.40023618  0.02883985    -0.43660
N1573       N  0.69383387  0.46091349  0.16829191    -0.43650
C1574       C  0.58208990  0.38651033  0.14763095    -0.00070
C1575       C  0.56322013  0.40992401  0.11736278    -0.11940
C1576       C  0.54336378  0.44472051  0.12756297     0.02170
C1577       C  0.52847297  0.45032305  0.16795909    -0.00150
C1578       C  0.53697539  0.41950175  0.19708486    -0.11880
C1579       C  0.56541179  0.38902563  0.18787443     0.02050
H1580       H  0.57237761  0.40665084  0.08552954     0.15030
H1581       H  0.52678058  0.42281632  0.22849968     0.15030
C1582       C  0.58051248  0.36487078  0.22097936     0.36690
C1583       C  0.54933046  0.47662494  0.09799041     0.36590
N1584       N  0.59387371  0.34574303  0.24725702    -0.43660
N1585       N  0.55721860  0.49953992  0.07218737    -0.43650
C1586       C  0.95421828  0.32616019  0.04613113    -0.00070
C1587       C  0.92575661  0.29704096  0.05953570    -0.11940
C1588       C  0.89713769  0.30648199  0.09062046     0.02170
C1589       C  0.90044564  0.34344234  0.11215954    -0.00150
C1590       C  0.93783479  0.36271364  0.10634254    -0.11880
C1591       C  0.95647669  0.36155626  0.06831888     0.02050
H1592       H  0.92602054  0.26766947  0.04615826     0.15030
H1593       H  0.95079988  0.38203596  0.12918114     0.15030
C1594       C  0.98230285  0.39408075  0.05494589     0.36690
C1595       C  0.86708041  0.27695739  0.10119298     0.36590
N1596       N  0.00299642  0.41894880  0.04165584    -0.43660
N1597       N  0.84288552  0.25313258  0.10912462    -0.43650
C1598       C  0.83664940  0.44984889  0.03916139    -0.00070
C1599       C  0.84602420  0.40933444  0.02830844    -0.11940
C1600       C  0.84331872  0.37709919  0.05625440     0.02170
C1601       C  0.83609051  0.38410289  0.09784460    -0.00150
C1602       C  0.81593122  0.41956087  0.10617002    -0.11880
C1603       C  0.82295203  0.45356699  0.08090380     0.02050
H1604       H  0.85169177  0.40038674  0.99717636     0.15030
H1605       H  0.80669298  0.42408576  0.13789411     0.15030
C1606       C  0.82771979  0.48805807  0.10590275     0.36690
C1607       C  0.83339569  0.33821937  0.04049355     0.36590
N1608       N  0.83194656  0.51171700  0.13112952    -0.43660
N1609       N  0.82376169  0.30694937  0.02903663    -0.43650
C1610       C  0.94392653  0.46551955  0.17272740    -0.00070
C1611       C  0.91976996  0.44603782  0.20241285    -0.11940
C1612       C  0.89046357  0.41723872  0.19186110     0.02170
C1613       C  0.88470371  0.40759708  0.15011149    -0.00150
C1614       C  0.90280023  0.43446554  0.12113586    -0.11880
C1615       C  0.93302593  0.46078055  0.13177817     0.02050
H1616       H  0.92098192  0.45656924  0.23309073     0.15030
H1617       H  0.89885229  0.42976843  0.08858199     0.15030
C1618       C  0.95460444  0.47987883  0.09911965     0.36690
C1619       C  0.86322078  0.40361958  0.22331571     0.36590
N1620       N  0.97263191  0.49348137  0.07211680    -0.43660
N1621       N  0.84055987  0.39367583  0.24842470    -0.43650
C1622       C  0.60105514  0.09397357  0.34374149    -0.00070
C1623       C  0.57319476  0.10477248  0.31363893    -0.11940
C1624       C  0.54083230  0.07836505  0.30435385     0.02170
C1625       C  0.53826609  0.03971133  0.32402785    -0.00150
C1626       C  0.57056551  0.02978576  0.34984615    -0.11880
C1627       C  0.60474603  0.05318275  0.34950753     0.02050
H1628       H  0.57399106  0.13495362  0.30115371     0.15030
H1629       H  0.57289639  0.00048511  0.36321237     0.15030
C1630       C  0.64388851  0.03597579  0.34857007     0.36690
C1631       C  0.50969403  0.09478275  0.27933211     0.36590
N1632       N  0.67656776  0.02593405  0.34528922    -0.43660
N1633       N  0.48524951  0.11090647  0.26057419    -0.43650
C1634       C  0.64081644  0.09603679  0.40998567    -0.00070
C1635       C  0.68201387  0.09047958  0.41477088    -0.11940
C1636       C  0.69679910  0.05867088  0.43902107     0.02170
C1637       C  0.67064096  0.03545731  0.46493609    -0.00150
C1638       C  0.63036390  0.04230151  0.46210737    -0.11880
C1639       C  0.61549930  0.07099449  0.43567326     0.02050
H1640       H  0.70298936  0.10739448  0.39619463     0.15030
H1641       H  0.61002458  0.02504537  0.48180259     0.15030
C1642       C  0.57336770  0.06824037  0.43254368     0.36690
C1643       C  0.73462954  0.04390907  0.42540093     0.36590
N1644       N  0.53956183  0.06305377  0.42993609    -0.43660
N1645       N  0.76324117  0.03260211  0.40946532    -0.43650
C1646       C  0.59384088  0.15014840  0.39878045    -0.00070
C1647       C  0.61131874  0.17118598  0.43104807    -0.11940
C1648       C  0.59037413  0.17944950  0.46716440     0.02170
C1649       C  0.54868106  0.16883193  0.47155918    -0.00150
C1650       C  0.53244217  0.14744302  0.43876312    -0.11880
C1651       C  0.55222855  0.14481841  0.40065259     0.02050
H1652       H  0.64319389  0.17726958  0.42967155     0.15030
H1653       H  0.50201424  0.13831972  0.44048478     0.15030
C1654       C  0.52863221  0.15206310  0.36469000     0.36690
C1655       C  0.61446559  0.20021399  0.49665133     0.36590
N1656       N  0.51066705  0.16139219  0.33591062    -0.43660
N1657       N  0.63439994  0.22014367  0.01707373    -0.43650
C1658       C  0.58304160  0.35827322  0.39517087    -0.00070
C1659       C  0.58291480  0.31843855  0.41048711    -0.11940
C1660       C  0.55595327  0.30747696  0.44229830     0.02170
C1661       C  0.52583694  0.33305258  0.45477068    -0.00150
C1662       C  0.52934637  0.37296317  0.44484130    -0.11880
C1663       C  0.55895573  0.38621786  0.41811471     0.02050
H1664       H  0.60528282  0.29748554  0.40066432     0.15030
H1665       H  0.51066320  0.39398749  0.46090997     0.15030
C1666       C  0.56660150  0.42873774  0.42007719     0.36690
C1667       C  0.56077286  0.27432877  0.46874162     0.36590
N1668       N  0.57251279  0.46233957  0.42571596    -0.43660
N1669       N  0.55663533  0.25299828  0.49633004    -0.43650
C1670       C  0.58928619  0.40166068  0.33222642    -0.00070
C1671       C  0.60308988  0.43353952  0.30706804    -0.11940
C1672       C  0.57670609  0.46439228  0.29369871     0.02170
C1673       C  0.53585084  0.46537735  0.30849509    -0.00150
C1674       C  0.52435007  0.43140317  0.33074816    -0.11880
C1675       C  0.54744115  0.39724849  0.33119478     0.02050
H1676       H  0.63384593  0.43511965  0.29800478     0.15030
H1677       H  0.49730470  0.43077391  0.34758079     0.15030
C1678       C  0.53053692  0.36368584  0.31017879     0.36690
C1679       C  0.59558794  0.49884937  0.27456091     0.36590
N1680       N  0.51681571  0.33857611  0.29034076    -0.43660
N1681       N  0.61202072  0.52706726  0.26185192    -0.43650
C1682       C  0.64301840  0.39851494  0.39445142    -0.00070
C1683       C  0.64922399  0.38176035  0.43422482    -0.11940
C1684       C  0.67047093  0.40196018  0.46406927     0.02170
C1685       C  0.67070565  0.44451112  0.46337421    -0.00150
C1686       C  0.67248271  0.45943665  0.42194983    -0.11880
C1687       C  0.66249019  0.43546692  0.38764095     0.02050
H1688       H  0.64472998  0.34994382  0.43908477     0.15030
H1689       H  0.68715426  0.48674283  0.41463035     0.15030
C1690       C  0.68571436  0.44154340  0.35067078     0.36690
C1691       C  0.70788249  0.38130336  0.46386941     0.36590
N1692       N  0.70580357  0.44599238  0.32184137    -0.43660
N1693       N  0.73646305  0.36259301  0.46019468    -0.43650
C1694       C  0.86134225  0.11443050  0.41337310    -0.00070
C1695       C  0.82148073  0.11399332  0.42760798    -0.11940
C1696       C  0.80927156  0.08688003  0.45956809     0.02170
C1697       C  0.83209048  0.05168554  0.46840138    -0.00150
C1698       C  0.86886242  0.05072109  0.44860658    -0.11880
C1699       C  0.88554328  0.08571931  0.43315632     0.02050
H1700       H  0.80145850  0.13741795  0.41813230     0.15030
H1701       H  0.88922970  0.02745499  0.45538755     0.15030
C1702       C  0.92122864  0.09655990  0.45456391     0.36690
C1703       C  0.77541357  0.09865679  0.48331664     0.36590
N1704       N  0.94991994  0.10216718  0.47317334    -0.43660
N1705       N  0.74872548  0.11124196  0.50140059    -0.43650
C1706       C  0.90867242  0.11871151  0.35248896    -0.00070
C1707       C  0.94439545  0.10385583  0.37012747    -0.11940
C1708       C  0.95830437  0.06515657  0.36214613     0.02170
C1709       C  0.95053718  0.04754564  0.32455369    -0.00150
C1710       C  0.92088896  0.06582703  0.30061453    -0.11880
C1711       C  0.89781360  0.09820120  0.31548343     0.02050
H1712       H  0.95759419  0.11857492  0.39548836     0.15030
H1713       H  0.91081621  0.04998230  0.27435596     0.15030
C1714       C  0.86080288  0.10388458  0.29452753     0.36690
C1715       C  0.96792019  0.03885612  0.39606606     0.36590
N1716       N  0.83082118  0.10594862  0.27732224    -0.43660
N1717       N  0.97303564  0.01585212  0.42236353    -0.43650
C1718       C  0.90314480  0.17793719  0.40672844    -0.00070
C1719       C  0.94212126  0.19075392  0.39695476    -0.11940
C1720       C  0.96856221  0.20441524  0.42813627     0.02170
C1721       C  0.95657108  0.20305142  0.47018231    -0.00150
C1722       C  0.91499146  0.21174126  0.47252186    -0.11880
C1723       C  0.88803986  0.19678116  0.44243554     0.02050
H1724       H  0.95164427  0.18937964  0.36534740     0.15030
H1725       H  0.90246431  0.22434342  0.50011271     0.15030
C1726       C  0.84597533  0.20316565  0.44792470     0.36690
C1727       C  0.00580715  0.22132035  0.41502845     0.36590
N1728       N  0.81233100  0.20937995  0.45208694    -0.43660
N1729       N  0.03699576  0.23016913  0.40239808    -0.43650
C1730       C  0.85733565  0.40563922  0.39906331    -0.00070
C1731       C  0.81825170  0.41631453  0.40943280    -0.11940
C1732       C  0.81183740  0.44542034  0.43976853     0.02170
C1733       C  0.84279157  0.46376768  0.46167676    -0.00150
C1734       C  0.88140392  0.45364769  0.45110402    -0.11880
C1735       C  0.88885092  0.42664913  0.41988718     0.02050
H1736       H  0.79310239  0.40231619  0.39440503     0.15030
H1737       H  0.90596418  0.46459603  0.46954984     0.15030
C1738       C  0.93013808  0.42021262  0.41210772     0.36690
C1739       C  0.77365021  0.45559787  0.45238937     0.36590
N1740       N  0.96381439  0.41570990  0.40797794    -0.43660
N1741       N  0.74747373  0.46965198  0.46913839    -0.43650
C1742       C  0.89433522  0.34469014  0.38933000    -0.00070
C1743       C  0.93107336  0.33257510  0.37599149    -0.11940
C1744       C  0.95953164  0.31813633  0.40303167     0.02170
C1745       C  0.95361335  0.31850557  0.44724118    -0.00150
C1746       C  0.91297583  0.32117125  0.45883448    -0.11880
C1747       C  0.88337642  0.33083323  0.42939040     0.02050
H1748       H  0.93770805  0.33269546  0.34408901     0.15030
H1749       H  0.90323515  0.31589834  0.48974318     0.15030
C1750       C  0.84184490  0.32536959  0.43928314     0.36690
C1751       C  0.99316881  0.30321604  0.38097610     0.36590
N1752       N  0.80813945  0.32002706  0.44481606    -0.43660
N1753       N  0.01751448  0.29198123  0.35877765    -0.43650
C1754       C  0.88747803  0.40288615  0.32947542    -0.00070
C1755       C  0.87116020  0.44098836  0.32544639    -0.11940
C1756       C  0.89657226  0.47427338  0.32616772     0.02170
C1757       C  0.93759457  0.47141301  0.31291267    -0.00150
C1758       C  0.94668492  0.43314047  0.29676214    -0.11880
C1759       C  0.92300627  0.39856638  0.30623949     0.02050
H1760       H  0.83997493  0.44472921  0.33356835     0.15030
H1761       H  0.97164118  0.43019187  0.27588945     0.15030
C1762       C  0.92755254  0.36427019  0.28005676     0.36690
C1763       C  0.87787621  0.50725289  0.34623248     0.36590
N1764       N  0.93072124  0.33691699  0.25879118    -0.43660
N1765       N  0.85911083  0.53137520  0.36224963    -0.43650
N1766       N  0.67068370  0.19185879  0.71255104    -0.06030
N1767       N  0.64313872  0.17860470  0.68651643    -0.58150
N1768       N  0.69803199  0.17061082  0.80846470    -0.05710
N1769       N  0.68718467  0.14041866  0.83319040    -0.60280
N1770       N  0.66930614  0.19743344  0.80697949    -0.05310
N1771       N  0.63944973  0.18591145  0.83146738    -0.58130
N1772       N  0.70036749  0.16609014  0.71406561    -0.04990
N1773       N  0.69326513  0.13602909  0.68829371    -0.60630
C1774       C  0.65780222  0.14443201  0.66987690     0.96150
C1775       C  0.65108047  0.15070083  0.84878017     0.95920
N1776       N  0.82460855  0.20731418  0.80775966    -0.06220
N1777       N  0.85553320  0.20159374  0.83244636    -0.58730
N1778       N  0.79828694  0.17221558  0.71476759    -0.04340
N1779       N  0.80897539  0.14359275  0.68894863    -0.59980
N1780       N  0.82402459  0.20219034  0.71222011    -0.06250
N1781       N  0.85220386  0.19410692  0.68467726    -0.59000
N1782       N  0.79800768  0.17824791  0.81239224    -0.03980
N1783       N  0.81077080  0.15289276  0.84156305    -0.60070
Mn1784     Mn  0.74885896  0.17139652  0.76278257     1.18440
C1785       C  0.84706668  0.16767956  0.85417741     0.98230
C1786       C  0.84226308  0.15763963  0.66912984     0.98890
N1787       N  0.66291089  0.29719251  0.80150637    -0.06270
N1788       N  0.63219149  0.30842608  0.82507678    -0.62570
N1789       N  0.69181671  0.32232597  0.70549066    -0.05070
N1790       N  0.68013742  0.35091079  0.67953184    -0.63250
N1791       N  0.66498611  0.29297567  0.70666592    -0.05770
N1792       N  0.63499103  0.30172796  0.68146733    -0.62840
N1793       N  0.69019998  0.32610665  0.80004030    -0.04670
N1794       N  0.67813554  0.35666492  0.82258092    -0.63530
Mn1795     Mn  0.66677316  0.24474492  0.75685286     1.10660
C1796       C  0.64218254  0.34560953  0.83906623     0.99450
C1797       C  0.64446249  0.33810621  0.66440549     0.99530
N1798       N  0.82027200  0.29942681  0.70775814    -0.05780
N1799       N  0.85033767  0.30936371  0.68274013    -0.61150
N1800       N  0.79009830  0.33046074  0.80110597    -0.05100
N1801       N  0.80105643  0.36065907  0.82542570    -0.57880
N1802       N  0.81755801  0.30247207  0.80224004    -0.06410
N1803       N  0.84635486  0.31273893  0.82760944    -0.60720
N1804       N  0.79165032  0.32618863  0.70534771    -0.05400
N1805       N  0.80212620  0.35432525  0.67792321    -0.57910
Mn1806     Mn  0.82118593  0.25277175  0.75722314     1.20190
Mn1807     Mn  0.74103231  0.32655769  0.75297035     1.10090
Cl1808     Cl  0.74399999  0.24890219  0.75734758    -0.85880
C1809       C  0.83887738  0.34356322  0.66363076     0.96460
C1810       C  0.83599242  0.34869491  0.84300704     0.96250
C1811       C  0.86816777  0.37495351  0.86431534    -0.02400
C1812       C  0.87947089  0.14522729  0.88087957    -0.02400
C1813       C  0.61500593  0.37550494  0.86366914    -0.02400
C1814       C  0.62229808  0.12298137  0.87423313    -0.02400
C1815       C  0.96841649  0.00703067  0.81406114     0.00650
C1816       C  0.51096671  0.00434583  0.81230611     0.00650
C1817       C  0.86470295  0.36825594  0.63198443    -0.02400
C1818       C  0.61912306  0.36153610  0.63163067    -0.02400
C1819       C  0.98963270  0.31936181  0.97764121     0.00650
C1820       C  0.99070317  0.31709466  0.52128503     0.00650
C1821       C  0.63554711  0.11608575  0.63841011    -0.02400
C1822       C  0.97275840  0.99873353  0.68356645     0.00650
C1823       C  0.51447279  0.99171080  0.68163047     0.00650
C1824       C  0.67601626  0.47017957  0.50410983     0.00650
C1825       C  0.68141083  0.01283072  0.50346211     0.00650
C1826       C  0.98141000  0.18864124  0.50993393     0.00650
C1827       C  0.52246113  0.17626323  0.50985734     0.00650
C1828       C  0.87042106  0.13330389  0.63999476    -0.02400
C1829       C  0.83545412  0.48214875  0.50366797     0.00650
C1830       C  0.82716633  0.02351929  0.50583178     0.00650
C1831       C  0.83433046  0.04631806  0.54439591    -0.00070
C1832       C  0.80386084  0.06631871  0.56583934    -0.11940
C1833       C  0.81248939  0.09339932  0.59813036     0.02170
C1834       C  0.85272593  0.09990144  0.61068441    -0.00150
C1835       C  0.88215509  0.07827736  0.58858516    -0.11880
C1836       C  0.87370663  0.05313017  0.55633242     0.02050
H1837       H  0.77338819  0.06166249  0.55651065     0.15030
H1838       H  0.91332534  0.08451426  0.59291085     0.15030
C1839       C  0.90676151  0.03758713  0.53335346     0.36690
C1840       C  0.78028922  0.11776031  0.61218646     0.36590
N1841       N  0.93285528  0.02622597  0.51343537    -0.43660
N1842       N  0.75427676  0.13800358  0.62204674    -0.43650
C1843       C  0.95370558  0.17999231  0.54838849    -0.00070
C1844       C  0.91685053  0.16099490  0.54006430    -0.11940
C1845       C  0.88459010  0.16292518  0.56680881     0.02170
C1846       C  0.89154290  0.16438432  0.60923740    -0.00150
C1847       C  0.92507326  0.18754997  0.61941195    -0.11880
C1848       C  0.95695106  0.19357537  0.59042611     0.02050
H1849       H  0.91036887  0.14938806  0.51032852     0.15030
H1850       H  0.93000295  0.19375855  0.65173671     0.15030
C1851       C  0.99297814  0.20533898  0.61017364     0.36690
C1852       C  0.84493045  0.16483676  0.55008470     0.36590
N1853       N  0.01875035  0.21333518  0.63225906    -0.43660
N1854       N  0.81323211  0.16777967  0.53665665    -0.43650
C1855       C  0.95091328  0.03908524  0.68416213    -0.00070
C1856       C  0.91173390  0.04165914  0.70009668    -0.11940
C1857       C  0.88612490  0.07385339  0.69087269     0.02170
C1858       C  0.90009019  0.10778251  0.66752633    -0.00150
C1859       C  0.94135064  0.10716335  0.65821498    -0.11880
C1860       C  0.96239513  0.07150645  0.65928549     0.02050
H1861       H  0.89890342  0.01676323  0.71693155     0.15030
H1862       H  0.95583147  0.12937957  0.63984680     0.15030
C1863       C  0.99091378  0.06611296  0.62775191     0.36690
C1864       C  0.84440662  0.06660114  0.69933444     0.36690
N1865       N  0.01440072  0.05989669  0.60311035    -0.43660
N1866       N  0.81117268  0.05896341  0.70571568    -0.43650
C1867       C  0.54477389  0.16235560  0.54797406    -0.00070
C1868       C  0.56802054  0.18961719  0.57053245    -0.11940
C1869       C  0.59739476  0.17770257  0.59928323     0.02170
C1870       C  0.60359886  0.13627882  0.60835886    -0.00150
C1871       C  0.58176148  0.10944014  0.58314353    -0.11880
C1872       C  0.55387269  0.12181174  0.55343764     0.02050
H1873       H  0.56438270  0.22123989  0.56449516     0.15030
H1874       H  0.58800389  0.07776185  0.58550827     0.15030
C1875       C  0.53504451  0.09169481  0.52856256     0.36690
C1876       C  0.62387484  0.20927932  0.61207896     0.36590
N1877       N  0.51913948  0.06607482  0.51135720    -0.43660
N1878       N  0.64496841  0.23557430  0.62033848    -0.43650
C1879       C  0.66714946  0.09674524  0.60746987    -0.00070
C1880       C  0.69026753  0.06218023  0.61396182    -0.11940
C1881       C  0.69807219  0.03524841  0.58101611     0.02170
C1882       C  0.68313902  0.04265570  0.54075076    -0.00150
C1883       C  0.67307095  0.08378308  0.53446656    -0.11880
C1884       C  0.67045646  0.11085668  0.56684334     0.02050
H1885       H  0.70202978  0.05600046  0.64434153     0.15030
H1886       H  0.67001735  0.09700071  0.50428041     0.15030
C1887       C  0.68307466  0.15160127  0.55972218     0.36690
C1888       C  0.72418275  0.00290654  0.58889833     0.36590
N1889       N  0.69672598  0.18324591  0.55501342    -0.43660
N1890       N  0.74424811  0.97618386  0.59657335    -0.43650
C1891       C  0.60949460  0.08397468  0.66395560    -0.00070
C1892       C  0.61777448  0.04265384  0.66524026    -0.11940
C1893       C  0.58934454  0.01338239  0.67662227     0.02170
C1894       C  0.54914881  0.02333457  0.68471555    -0.00150
C1895       C  0.54438040  0.06380109  0.69457346    -0.11880
C1896       C  0.57300803  0.09392791  0.68401393     0.02050
H1897       H  0.64713244  0.03177339  0.66210798     0.15030
H1898       H  0.51702993  0.07248536  0.70777698     0.15030
C1899       C  0.56302177  0.13472008  0.69312382     0.36690
C1900       C  0.60538733  0.97653992  0.69201554     0.36590
N1901       N  0.55453991  0.16713144  0.70133369    -0.43660
N1902       N  0.61944713  0.44935629  0.70861111    -0.43650
C1903       C  0.59900787  0.33112609  0.60139689    -0.00070
C1904       C  0.56504569  0.31051888  0.61597385    -0.11940
C1905       C  0.53066113  0.30568924  0.59156004     0.02170
C1906       C  0.52972187  0.31865396  0.54886590    -0.00150
C1907       C  0.56660399  0.33565486  0.53500378    -0.11880
C1908       C  0.60138137  0.33539999  0.55848117     0.02050
H1909       H  0.56273072  0.30469732  0.64884671     0.15030
H1910       H  0.57099749  0.34999710  0.50604273     0.15030
C1911       C  0.63735887  0.32514358  0.53684965     0.36690
C1912       C  0.49639910  0.29396873  0.61580190     0.36590
N1913       N  0.66566695  0.31531925  0.51931653    -0.43660
N1914       N  0.97102279  0.28549360  0.63870348    -0.43650
C1915       C  0.67192202  0.44603871  0.54468827    -0.00070
C1916       C  0.64557581  0.45748016  0.57616463    -0.11940
C1917       C  0.64446112  0.43470457  0.61301468     0.02170
C1918       C  0.64761743  0.39281972  0.60884560    -0.00150
C1919       C  0.67988034  0.38257953  0.58394153    -0.11880
C1920       C  0.69365754  0.41047322  0.55385752     0.02050
H1921       H  0.63263527  0.48687244  0.57540344     0.15030
H1922       H  0.69384176  0.35369623  0.58767397     0.15030
C1923       C  0.73329125  0.40579300  0.54023351     0.36690
C1924       C  0.67142778  0.44984274  0.64377774     0.36590
N1925       N  0.76512014  0.40023617  0.52883983    -0.43660
N1926       N  0.69383388  0.46091348  0.66829191    -0.43650
C1927       C  0.58208990  0.38651033  0.64763094    -0.00070
C1928       C  0.56322014  0.40992401  0.61736278    -0.11940
C1929       C  0.54336378  0.44472051  0.62756297     0.02170
C1930       C  0.52847298  0.45032305  0.66795909    -0.00150
C1931       C  0.53697540  0.41950175  0.69708486    -0.11880
C1932       C  0.56541180  0.38902563  0.68787443     0.02050
H1933       H  0.57237762  0.40665084  0.58552954     0.15030
H1934       H  0.52678058  0.42281632  0.72849967     0.15030
C1935       C  0.58051248  0.36487077  0.72097936     0.36690
C1936       C  0.54933046  0.47662494  0.59799041     0.36590
N1937       N  0.59387371  0.34574302  0.74725701    -0.43660
N1938       N  0.55721860  0.49953992  0.57218737    -0.43650
C1939       C  0.95421828  0.32616019  0.54613113    -0.00070
C1940       C  0.92575661  0.29704096  0.55953570    -0.11940
C1941       C  0.89713769  0.30648199  0.59062046     0.02170
C1942       C  0.90044564  0.34344234  0.61215954    -0.00150
C1943       C  0.93783479  0.36271364  0.60634254    -0.11880
C1944       C  0.95647669  0.36155626  0.56831888     0.02050
H1945       H  0.92602054  0.26766947  0.54615826     0.15030
H1946       H  0.95079988  0.38203597  0.62918114     0.15030
C1947       C  0.98230285  0.39408075  0.55494589     0.36690
C1948       C  0.86708041  0.27695739  0.60119299     0.36590
N1949       N  0.00299642  0.41894880  0.54165584    -0.43660
N1950       N  0.84288552  0.25313259  0.60912463    -0.43650
C1951       C  0.83664940  0.44984889  0.53916139    -0.00070
C1952       C  0.84602420  0.40933444  0.52830844    -0.11940
C1953       C  0.84331872  0.37709919  0.55625440     0.02170
C1954       C  0.83609051  0.38410289  0.59784460    -0.00150
C1955       C  0.81593121  0.41956087  0.60617002    -0.11880
C1956       C  0.82295203  0.45356699  0.58090380     0.02050
H1957       H  0.85169176  0.40038674  0.49717636     0.15030
H1958       H  0.80669298  0.42408576  0.63789411     0.15030
C1959       C  0.82771978  0.48805807  0.60590275     0.36690
C1960       C  0.83339569  0.33821937  0.54049355     0.36590
N1961       N  0.83194656  0.51171700  0.63112952    -0.43660
N1962       N  0.82376169  0.30694936  0.52903663    -0.43650
C1963       C  0.94392653  0.46551956  0.67272740    -0.00070
C1964       C  0.91976996  0.44603782  0.70241285    -0.11940
C1965       C  0.89046357  0.41723872  0.69186110     0.02170
C1966       C  0.88470371  0.40759708  0.65011149    -0.00150
C1967       C  0.90280023  0.43446555  0.62113586    -0.11880
C1968       C  0.93302593  0.46078056  0.63177817     0.02050
H1969       H  0.92098191  0.45656924  0.73309073     0.15030
H1970       H  0.89885229  0.42976844  0.58858200     0.15030
C1971       C  0.95460444  0.47987884  0.59911965     0.36690
C1972       C  0.86322078  0.40361959  0.72331571     0.36590
N1973       N  0.97263191  0.49348137  0.57211680    -0.43660
N1974       N  0.84055987  0.39367584  0.74842470    -0.43650
C1975       C  0.60105514  0.09397357  0.84374149    -0.00070
C1976       C  0.57319476  0.10477248  0.81363893    -0.11940
C1977       C  0.54083231  0.07836505  0.80435385     0.02170
C1978       C  0.53826610  0.03971133  0.82402785    -0.00150
C1979       C  0.57056552  0.02978575  0.84984615    -0.11880
C1980       C  0.60474603  0.05318275  0.84950752     0.02050
H1981       H  0.57399106  0.13495362  0.80115371     0.15030
H1982       H  0.57289640  0.00048511  0.86321236     0.15030
C1983       C  0.64388851  0.03597579  0.84857007     0.36690
C1984       C  0.50969403  0.09478275  0.77933211     0.36590
N1985       N  0.67656777  0.02593405  0.84528922    -0.43660
N1986       N  0.48524951  0.11090647  0.76057419    -0.43650
C1987       C  0.64081644  0.09603679  0.90998567    -0.00070
C1988       C  0.68201387  0.09047957  0.91477088    -0.11940
C1989       C  0.69679910  0.05867087  0.93902107     0.02170
C1990       C  0.67064096  0.03545730  0.96493609    -0.00150
C1991       C  0.63036391  0.04230151  0.96210737    -0.11880
C1992       C  0.61549930  0.07099449  0.93567326     0.02050
H1993       H  0.70298936  0.10739447  0.89619462     0.15030
H1994       H  0.61002459  0.02504537  0.98180259     0.15030
C1995       C  0.57336771  0.06824037  0.93254368     0.36690
C1996       C  0.73462955  0.04390907  0.92540093     0.36590
N1997       N  0.53956183  0.06305376  0.92993609    -0.43660
N1998       N  0.76324117  0.03260210  0.90946532    -0.43650
C1999       C  0.59384088  0.15014840  0.89878045    -0.00070
C2000       C  0.61131874  0.17118598  0.93104807    -0.11940
C2001       C  0.59037413  0.17944950  0.96716440     0.02170
C2002       C  0.54868106  0.16883192  0.97155918    -0.00150
C2003       C  0.53244217  0.14744302  0.93876312    -0.11880
C2004       C  0.55222856  0.14481841  0.90065259     0.02050
H2005       H  0.64319390  0.17726958  0.92967155     0.15030
H2006       H  0.50201424  0.13831971  0.94048478     0.15030
C2007       C  0.52863222  0.15206310  0.86469000     0.36690
C2008       C  0.61446559  0.20021399  0.99665133     0.36590
N2009       N  0.51066706  0.16139219  0.83591062    -0.43660
N2010       N  0.63439994  0.22014367  0.51707373    -0.43650
C2011       C  0.58304160  0.35827322  0.89517087    -0.00070
C2012       C  0.58291480  0.31843855  0.91048711    -0.11940
C2013       C  0.55595327  0.30747696  0.94229830     0.02170
C2014       C  0.52583694  0.33305258  0.95477068    -0.00150
C2015       C  0.52934636  0.37296317  0.94484130    -0.11880
C2016       C  0.55895573  0.38621786  0.91811471     0.02050
H2017       H  0.60528281  0.29748554  0.90066432     0.15030
H2018       H  0.51066320  0.39398749  0.96090997     0.15030
C2019       C  0.56660150  0.42873774  0.92007719     0.36690
C2020       C  0.56077286  0.27432877  0.96874162     0.36590
N2021       N  0.57251279  0.46233957  0.92571596    -0.43660
N2022       N  0.55663533  0.25299827  0.99633004    -0.43650
C2023       C  0.58928619  0.40166068  0.83222642    -0.00070
C2024       C  0.60308988  0.43353951  0.80706804    -0.11940
C2025       C  0.57670609  0.46439228  0.79369870     0.02170
C2026       C  0.53585084  0.46537735  0.80849509    -0.00150
C2027       C  0.52435007  0.43140317  0.83074816    -0.11880
C2028       C  0.54744115  0.39724849  0.83119478     0.02050
H2029       H  0.63384593  0.43511964  0.79800478     0.15030
H2030       H  0.49730470  0.43077391  0.84758079     0.15030
C2031       C  0.53053692  0.36368584  0.81017879     0.36690
C2032       C  0.59558794  0.49884937  0.77456091     0.36590
N2033       N  0.51681571  0.33857610  0.79034076    -0.43660
N2034       N  0.61202072  0.52706726  0.76185192    -0.43650
C2035       C  0.64301840  0.39851494  0.89445142    -0.00070
C2036       C  0.64922399  0.38176035  0.93422482    -0.11940
C2037       C  0.67047092  0.40196018  0.96406928     0.02170
C2038       C  0.67070565  0.44451111  0.96337421    -0.00150
C2039       C  0.67248271  0.45943664  0.92194983    -0.11880
C2040       C  0.66249019  0.43546692  0.88764095     0.02050
H2041       H  0.64472998  0.34994382  0.93908476     0.15030
H2042       H  0.68715426  0.48674283  0.91463035     0.15030
C2043       C  0.68571436  0.44154340  0.85067078     0.36690
C2044       C  0.70788248  0.38130335  0.96386943     0.36590
N2045       N  0.70580357  0.44599239  0.82184137    -0.43660
N2046       N  0.73646303  0.36259299  0.96019471    -0.43650
C2047       C  0.86134225  0.11443050  0.91337310    -0.00070
C2048       C  0.82148073  0.11399331  0.92760797    -0.11940
C2049       C  0.80927156  0.08688002  0.95956808     0.02170
C2050       C  0.83209048  0.05168554  0.96840138    -0.00150
C2051       C  0.86886243  0.05072108  0.94860658    -0.11880
C2052       C  0.88554328  0.08571931  0.93315632     0.02050
H2053       H  0.80145849  0.13741794  0.91813229     0.15030
H2054       H  0.88922971  0.02745498  0.95538755     0.15030
C2055       C  0.92122865  0.09655989  0.95456390     0.36690
C2056       C  0.77541357  0.09865679  0.98331663     0.36590
N2057       N  0.94991995  0.10216717  0.97317333    -0.43660
N2058       N  0.74872548  0.11124196  0.00140058    -0.43650
C2059       C  0.90867242  0.11871151  0.85248895    -0.00070
C2060       C  0.94439545  0.10385583  0.87012746    -0.11940
C2061       C  0.95830438  0.06515657  0.86214612     0.02170
C2062       C  0.95053719  0.04754564  0.82455368    -0.00150
C2063       C  0.92088896  0.06582701  0.80061453    -0.11880
C2064       C  0.89781358  0.09820117  0.81548344     0.02050
H2065       H  0.95759419  0.11857492  0.89548835     0.15030
H2066       H  0.91081619  0.04998228  0.77435597     0.15030
C2067       C  0.86080283  0.10388450  0.79452757     0.36690
C2068       C  0.96792020  0.03885613  0.89606605     0.36590
N2069       N  0.83082110  0.10594850  0.77732232    -0.43660
N2070       N  0.97303565  0.01585212  0.92236352    -0.43650
C2071       C  0.90314480  0.17793718  0.90672843    -0.00070
C2072       C  0.94212126  0.19075391  0.89695476    -0.11940
C2073       C  0.96856221  0.20441524  0.92813627     0.02170
C2074       C  0.95657108  0.20305141  0.97018231    -0.00150
C2075       C  0.91499145  0.21174125  0.97252186    -0.11880
C2076       C  0.88803986  0.19678115  0.94243554     0.02050
H2077       H  0.95164427  0.18937963  0.86534740     0.15030
H2078       H  0.90246431  0.22434341  0.00011271     0.15030
C2079       C  0.84597533  0.20316564  0.94792469     0.36690
C2080       C  0.00580715  0.22132034  0.91502845     0.36590
N2081       N  0.81233100  0.20937994  0.95208693    -0.43660
N2082       N  0.03699576  0.23016913  0.90239808    -0.43650
C2083       C  0.85733565  0.40563922  0.89906331    -0.00070
C2084       C  0.81825170  0.41631453  0.90943280    -0.11940
C2085       C  0.81183740  0.44542034  0.93976853     0.02170
C2086       C  0.84279157  0.46376768  0.96167676    -0.00150
C2087       C  0.88140392  0.45364769  0.95110402    -0.11880
C2088       C  0.88885092  0.42664913  0.91988718     0.02050
H2089       H  0.79310239  0.40231619  0.89440503     0.15030
H2090       H  0.90596418  0.46459604  0.96954984     0.15030
C2091       C  0.93013808  0.42021262  0.91210772     0.36690
C2092       C  0.77365021  0.45559786  0.95238937     0.36590
N2093       N  0.96381439  0.41570990  0.90797794    -0.43660
N2094       N  0.74747373  0.46965197  0.96913839    -0.43650
C2095       C  0.89433523  0.34469015  0.88932999    -0.00070
C2096       C  0.93107337  0.33257510  0.87599148    -0.11940
C2097       C  0.95953164  0.31813633  0.90303166     0.02170
C2098       C  0.95361335  0.31850557  0.94724118    -0.00150
C2099       C  0.91297583  0.32117125  0.95883448    -0.11880
C2100       C  0.88337642  0.33083324  0.92939039     0.02050
H2101       H  0.93770806  0.33269547  0.84408901     0.15030
H2102       H  0.90323515  0.31589834  0.98974317     0.15030
C2103       C  0.84184491  0.32536959  0.93928314     0.36690
C2104       C  0.99316881  0.30321604  0.88097609     0.36590
N2105       N  0.80813946  0.32002707  0.94481605    -0.43660
N2106       N  0.01751448  0.29198123  0.85877765    -0.43650
C2107       C  0.88747803  0.40288616  0.82947542    -0.00070
C2108       C  0.87116020  0.44098836  0.82544639    -0.11940
C2109       C  0.89657226  0.47427339  0.82616772     0.02170
C2110       C  0.93759457  0.47141302  0.81291267    -0.00150
C2111       C  0.94668492  0.43314048  0.79676214    -0.11880
C2112       C  0.92300627  0.39856638  0.80623948     0.02050
H2113       H  0.83997493  0.44472922  0.83356835     0.15030
H2114       H  0.97164118  0.43019188  0.77588945     0.15030
C2115       C  0.92755254  0.36427020  0.78005676     0.36690
C2116       C  0.87787622  0.50725289  0.84623248     0.36590
N2117       N  0.93072124  0.33691700  0.75879118    -0.43660
N2118       N  0.85911083  0.53137521  0.86224964    -0.43650
N2119       N  0.67068332  0.69185912  0.21255067    -0.06030
N2120       N  0.64313841  0.67860523  0.18651587    -0.58150
N2121       N  0.69803088  0.67061082  0.30846442    -0.05710
N2122       N  0.68718306  0.64041847  0.33318968    -0.60280
N2123       N  0.66930522  0.69743362  0.30697915    -0.05310
N2124       N  0.63944843  0.68591158  0.33146656    -0.58130
N2125       N  0.70036695  0.66609030  0.21406538    -0.04990
N2126       N  0.69326453  0.63602927  0.18829346    -0.60630
C2127       C  0.65780178  0.64443243  0.16987643     0.96150
C2128       C  0.65107873  0.65070070  0.34877914     0.95920
N2129       N  0.82460784  0.70731410  0.30775974    -0.06220
N2130       N  0.85553230  0.70159341  0.33244662    -0.58730
N2131       N  0.79828648  0.67221536  0.21476794    -0.04340
N2132       N  0.80897495  0.64359240  0.18894915    -0.59980
N2133       N  0.82402417  0.70219008  0.21222032    -0.06250
N2134       N  0.85220345  0.69410654  0.18467757    -0.59000
N2135       N  0.79800662  0.67824816  0.31239242    -0.03980
N2136       N  0.81076921  0.65289314  0.34156359    -0.60070
Mn2137     Mn  0.74885820  0.67139658  0.26278259     1.18440
C2138       C  0.84706524  0.66767949  0.35417791     0.98230
C2139       C  0.84226267  0.65763921  0.16913034     0.98890
N2140       N  0.66291133  0.79719279  0.30150609    -0.06270
N2141       N  0.63219213  0.80842646  0.32507670    -0.62570
N2142       N  0.69181693  0.82232603  0.20549039    -0.05070
N2143       N  0.68013757  0.85091085  0.17953161    -0.63250
N2144       N  0.66498627  0.79297580  0.20666574    -0.05770
N2145       N  0.63499112  0.80172808  0.18146727    -0.62840
N2146       N  0.69020057  0.82610681  0.30003995    -0.04670
N2147       N  0.67813644  0.85666507  0.32258072    -0.63530
Mn2148     Mn  0.66677302  0.74474519  0.25685260     1.10660
C2149       C  0.64218348  0.84560980  0.33906619     0.99450
C2150       C  0.64446256  0.83810629  0.16440542     0.99530
N2151       N  0.82027222  0.79942659  0.20775757    -0.05780
N2152       N  0.85033788  0.80936331  0.18273944    -0.61150
N2153       N  0.79009896  0.83046112  0.30110536    -0.05100
N2154       N  0.80105749  0.86065973  0.32542457    -0.57880
N2155       N  0.81755855  0.80247234  0.30223955    -0.06410
N2156       N  0.84635575  0.81273944  0.32760846    -0.60720
N2157       N  0.79165061  0.82618848  0.20534703    -0.05400
N2158       N  0.80212651  0.85432495  0.17792237    -0.57910
Mn2159     Mn  0.82118584  0.75277165  0.25722298     1.20190
Mn2160     Mn  0.74103272  0.82655779  0.25296987     1.10090
Cl2161     Cl  0.74399987  0.74890228  0.25734740    -0.85880
C2162       C  0.83887765  0.84356279  0.16362989     0.96460
C2163       C  0.83599365  0.84869568  0.34300567     0.96250
C2164       C  0.86816916  0.87495431  0.36431392    -0.02400
C2165       C  0.87946912  0.64522683  0.38088008    -0.02400
C2166       C  0.61500716  0.87550527  0.36366919    -0.02400
C2167       C  0.62229613  0.62298139  0.37423220    -0.02400
C2168       C  0.96841440  0.50702981  0.31406180     0.00650
C2169       C  0.51096463  0.50434504  0.31230664     0.00650
C2170       C  0.86470341  0.86825556  0.13198365    -0.02400
C2171       C  0.61912310  0.86153609  0.13163066    -0.02400
C2172       C  0.98963346  0.81936217  0.47764049     0.00650
C2173       C  0.99070378  0.81709474  0.02128431     0.00650
C2174       C  0.63554660  0.61608619  0.13840968    -0.02400
C2175       C  0.97275845  0.49873366  0.18356657     0.00650
C2176       C  0.51447283  0.49171094  0.18163045     0.00650
C2177       C  0.67601755  0.97017928  0.00411042     0.00650
C2178       C  0.68140919  0.51283108  0.00346148     0.00650
C2179       C  0.98140885  0.68864093  0.00993398     0.00650
C2180       C  0.52246003  0.67626309  0.00985709     0.00650
C2181       C  0.87042055  0.63330346  0.13999528    -0.02400
C2182       C  0.83545562  0.98214898  0.00366709     0.00650
C2183       C  0.82716483  0.52351904  0.00583260     0.00650
C2184       C  0.83432918  0.54631782  0.04439668    -0.00070
C2185       C  0.80385977  0.56631882  0.06584003    -0.11940
C2186       C  0.81248854  0.59339928  0.09813109     0.02170
C2187       C  0.85272512  0.59990086  0.11068531    -0.00150
C2188       C  0.88215407  0.57827640  0.08858618    -0.11880
C2189       C  0.87370540  0.55312948  0.05633327     0.02050
H2190       H  0.77338710  0.56166299  0.05651125     0.15030
H2191       H  0.91332437  0.58451292  0.09291193     0.15030
C2192       C  0.90676017  0.53758649  0.03335412     0.36690
C2193       C  0.78028861  0.61776076  0.11218691     0.36590
N2194       N  0.93285390  0.52622546  0.01343589    -0.43660
N2195       N  0.75427635  0.63800442  0.12204691    -0.43650
C2196       C  0.95370475  0.67999170  0.04838866    -0.00070
C2197       C  0.91684996  0.66099378  0.04006461    -0.11940
C2198       C  0.88458947  0.66292405  0.06680903     0.02170
C2199       C  0.89154216  0.66438373  0.10923761    -0.00150
C2200       C  0.92507232  0.68754975  0.11941200    -0.11880
C2201       C  0.95695012  0.69357510  0.09042616     0.02050
H2202       H  0.91036842  0.64938685  0.01032886     0.15030
H2203       H  0.93000197  0.69375856  0.15173672     0.15030
C2204       C  0.99297726  0.70533850  0.11017372     0.36690
C2205       C  0.84492988  0.66483566  0.05008480     0.36590
N2206       N  0.01874952  0.71333447  0.13225916    -0.43660
N2207       N  0.81323158  0.66777861  0.03665666    -0.43650
C2208       C  0.95091340  0.53908539  0.18416250    -0.00070
C2209       C  0.91173419  0.54165932  0.20009747    -0.11940
C2210       C  0.88612504  0.57385346  0.19087357     0.02170
C2211       C  0.90009001  0.60778242  0.16752681    -0.00150
C2212       C  0.94135040  0.60716338  0.15821514    -0.11880
C2213       C  0.96239504  0.57150657  0.15928571     0.02050
H2214       H  0.89890380  0.51676328  0.21693218     0.15030
H2215       H  0.95583100  0.62937953  0.13984669     0.15030
C2216       C  0.99091355  0.56611302  0.12775201     0.36690
C2217       C  0.84440684  0.56660112  0.19933560     0.36690
N2218       N  0.01440036  0.55989661  0.10311037    -0.43660
N2219       N  0.81117293  0.55896323  0.20571683    -0.43650
C2220       C  0.54477302  0.66235567  0.04797375    -0.00070
C2221       C  0.56801963  0.68961738  0.07053204    -0.11940
C2222       C  0.59739394  0.67770287  0.09928281     0.02170
C2223       C  0.60359811  0.63627916  0.10835858    -0.00150
C2224       C  0.58176070  0.60944038  0.08314338    -0.11880
C2225       C  0.55387188  0.62181184  0.05343747     0.02050
H2226       H  0.56438170  0.72124005  0.06449465     0.15030
H2227       H  0.58800320  0.57776211  0.08550817     0.15030
C2228       C  0.53504371  0.59169480  0.02856249     0.36690
C2229       C  0.62387405  0.70927967  0.11207838     0.36590
N2230       N  0.51913871  0.56607474  0.01135722    -0.43660
N2231       N  0.64496764  0.73557468  0.12033776    -0.43650
C2232       C  0.66714885  0.59674579  0.10746927    -0.00070
C2233       C  0.69026694  0.56218077  0.11396099    -0.11940
C2234       C  0.69807116  0.53524890  0.08101521     0.02170
C2235       C  0.68313748  0.54265611  0.04075006    -0.00150
C2236       C  0.67306922  0.58378346  0.03446593    -0.11880
C2237       C  0.67045540  0.61085715  0.06684270     0.02050
H2238       H  0.70202953  0.55600100  0.14434055     0.15030
H2239       H  0.67001519  0.59700104  0.00427981     0.15030
C2240       C  0.68307410  0.65160158  0.05972148     0.36690
C2241       C  0.72418167  0.50290694  0.08889703     0.36590
N2242       N  0.69672581  0.68324607  0.05501276    -0.43660
N2243       N  0.74424690  0.47618402  0.09657145    -0.43650
C2244       C  0.60949436  0.58397502  0.16395528    -0.00070
C2245       C  0.61777437  0.54265420  0.16523985    -0.11940
C2246       C  0.58934454  0.51338266  0.17662185     0.02170
C2247       C  0.54914882  0.52333477  0.18471535    -0.00150
C2248       C  0.54438039  0.56380126  0.19457344    -0.11880
C2249       C  0.57300790  0.59392814  0.18401385     0.02050
H2250       H  0.64713239  0.53177388  0.16210763     0.15030
H2251       H  0.51703002  0.57248551  0.20777715     0.15030
C2252       C  0.56302163  0.63472025  0.19312400     0.36690
C2253       C  0.60538750  0.47654027  0.19201520     0.36590
N2254       N  0.55453977  0.66713156  0.20133410    -0.43660
N2255       N  0.61944689  0.94935583  0.20861133    -0.43650
C2256       C  0.59900805  0.83112605  0.10139683    -0.00070
C2257       C  0.56504581  0.81051883  0.11597358    -0.11940
C2258       C  0.53066144  0.80568907  0.09155951     0.02170
C2259       C  0.52972241  0.81865385  0.04886537    -0.00150
C2260       C  0.56660471  0.83565457  0.03500345    -0.11880
C2261       C  0.60138190  0.83539978  0.05848116     0.02050
H2262       H  0.56273065  0.80469728  0.14884644     0.15030
H2263       H  0.57099853  0.84999665  0.00604237     0.15030
C2264       C  0.63735954  0.82514293  0.03685014     0.36690
C2265       C  0.49639933  0.79396837  0.11580115     0.36590
N2266       N  0.66566773  0.81531813  0.01931752    -0.43660
N2267       N  0.97102296  0.78549321  0.13870263    -0.43650
C2268       C  0.67192289  0.94603865  0.04468886    -0.00070
C2269       C  0.64557628  0.95748014  0.07616481    -0.11940
C2270       C  0.64446117  0.93470455  0.11301484     0.02170
C2271       C  0.64761749  0.89281971  0.10884570    -0.00150
C2272       C  0.67988070  0.88257948  0.08394205    -0.11880
C2273       C  0.69365835  0.91047327  0.05385841     0.02050
H2274       H  0.63263574  0.98687242  0.07540342     0.15030
H2275       H  0.69384210  0.85369619  0.08767463     0.15030
C2276       C  0.73329227  0.90579337  0.04023502     0.36690
C2277       C  0.67142765  0.94984263  0.14377810     0.36590
N2278       N  0.76512124  0.90023688  0.02884144    -0.43660
N2279       N  0.69383360  0.96091327  0.16829247    -0.43650
C2280       C  0.58208988  0.88651023  0.14763087    -0.00070
C2281       C  0.56322016  0.90992395  0.11736271    -0.11940
C2282       C  0.54336385  0.94472046  0.12756295     0.02170
C2283       C  0.52847295  0.95032291  0.16795905    -0.00150
C2284       C  0.53697530  0.91950154  0.19708476    -0.11880
C2285       C  0.56541170  0.88902542  0.18787432     0.02050
H2286       H  0.57237773  0.90665082  0.08552948     0.15030
H2287       H  0.52678057  0.92281611  0.22849960     0.15030
C2288       C  0.58051250  0.86487062  0.22097923     0.36690
C2289       C  0.54933076  0.97662497  0.09799053     0.36590
N2290       N  0.59387393  0.84574294  0.24725683    -0.43660
N2291       N  0.55721907  0.99954001  0.07218761    -0.43650
C2292       C  0.95421880  0.82616016  0.04613033    -0.00070
C2293       C  0.92575705  0.79704088  0.05953465    -0.11940
C2294       C  0.89713815  0.80648173  0.09061951     0.02170
C2295       C  0.90044613  0.84344193  0.11215884    -0.00150
C2296       C  0.93783533  0.86271317  0.10634202    -0.11880
C2297       C  0.95647719  0.86155608  0.06831833     0.02050
H2298       H  0.92602097  0.76766950  0.04615698     0.15030
H2299       H  0.95080042  0.88203534  0.12918077     0.15030
C2300       C  0.98230335  0.89408066  0.05494555     0.36690
C2301       C  0.86708082  0.77695713  0.10119189     0.36590
N2302       N  0.00299691  0.91894879  0.04165566    -0.43660
N2303       N  0.84288590  0.75313233  0.10912346    -0.43650
C2304       C  0.83665079  0.94984904  0.03916046    -0.00070
C2305       C  0.84602553  0.90933460  0.02830749    -0.11940
C2306       C  0.84331979  0.87709926  0.05625337     0.02170
C2307       C  0.83609127  0.88410282  0.09784360    -0.00150
C2308       C  0.81593221  0.91956098  0.10616899    -0.11880
C2309       C  0.82295327  0.95356712  0.08090280     0.02050
H2310       H  0.85169340  0.90038700  0.99717542     0.15030
H2311       H  0.80669390  0.92408589  0.13789305     0.15030
C2312       C  0.82772163  0.98805808  0.10590180     0.36690
C2313       C  0.83339683  0.83821952  0.04049226     0.36590
N2314       N  0.83194906  0.01171695  0.13112851    -0.43660
N2315       N  0.82376291  0.80694960  0.02903504    -0.43650
C2316       C  0.94392659  0.96551938  0.17272720    -0.00070
C2317       C  0.91976984  0.94603763  0.20241251    -0.11940
C2318       C  0.89046372  0.91723833  0.19186058     0.02170
C2319       C  0.88470423  0.90759658  0.15011093    -0.00150
C2320       C  0.90280093  0.93446503  0.12113541    -0.11880
C2321       C  0.93302637  0.96078021  0.13177790     0.02050
H2322       H  0.92098142  0.95656910  0.23309041     0.15030
H2323       H  0.89885324  0.92976790  0.08858152     0.15030
C2324       C  0.95460487  0.97987867  0.09911949     0.36690
C2325       C  0.86322096  0.90361899  0.22331509     0.36590
N2326       N  0.97263231  0.99348134  0.07211669    -0.43660
N2327       N  0.84056016  0.89367514  0.24842414    -0.43650
C2328       C  0.60105303  0.59397341  0.34374079    -0.00070
C2329       C  0.57319224  0.60477207  0.31363853    -0.11940
C2330       C  0.54082981  0.57836442  0.30435387     0.02170
C2331       C  0.53826399  0.53971073  0.32402799    -0.00150
C2332       C  0.57056374  0.52978541  0.34984595    -0.11880
C2333       C  0.60474414  0.55318262  0.34950694     0.02050
H2334       H  0.57398835  0.63495313  0.30115309     0.15030
H2335       H  0.57289492  0.50048480  0.36321219     0.15030
C2336       C  0.64388670  0.53597585  0.34856937     0.36690
C2337       C  0.50969129  0.59478172  0.27933215     0.36590
N2338       N  0.67656600  0.52593426  0.34528843    -0.43660
N2339       N  0.48524652  0.61090492  0.26057411    -0.43650
C2340       C  0.64081452  0.59603693  0.40998486    -0.00070
C2341       C  0.68201195  0.59047996  0.41477022    -0.11940
C2342       C  0.69679730  0.55867135  0.43902040     0.02170
C2343       C  0.67063924  0.53545764  0.46493542    -0.00150
C2344       C  0.63036216  0.54230171  0.46210668    -0.11880
C2345       C  0.61549746  0.57099463  0.43567252     0.02050
H2346       H  0.70298742  0.60739504  0.39619412     0.15030
H2347       H  0.61002289  0.52504554  0.48180193     0.15030
C2348       C  0.57336586  0.56824054  0.43254311     0.36690
C2349       C  0.73462779  0.54390979  0.42540011     0.36590
N2350       N  0.53955996  0.56305400  0.42993571    -0.43660
N2351       N  0.76323945  0.53260307  0.40946438    -0.43650
C2352       C  0.59383905  0.65014858  0.39877950    -0.00070
C2353       C  0.61131709  0.67118607  0.43104708    -0.11940
C2354       C  0.59037281  0.67944916  0.46716372     0.02170
C2355       C  0.54867972  0.66883174  0.47155872    -0.00150
C2356       C  0.53244056  0.64744312  0.43876259    -0.11880
C2357       C  0.55222673  0.64481862  0.40065190     0.02050
H2358       H  0.64319224  0.67726970  0.42967035     0.15030
H2359       H  0.50201262  0.63831989  0.44048440     0.15030
C2360       C  0.52863017  0.65206332  0.36468944     0.36690
C2361       C  0.61446459  0.70021316  0.49665072     0.36590
N2362       N  0.51066484  0.66139225  0.33591012    -0.43660
N2363       N  0.63439919  0.72014259  0.01707311    -0.43650
C2364       C  0.58304270  0.85827358  0.39517074    -0.00070
C2365       C  0.58291572  0.81843884  0.41048681    -0.11940
C2366       C  0.55595405  0.80747722  0.44229783     0.02170
C2367       C  0.52583783  0.83305295  0.45477024    -0.00150
C2368       C  0.52934744  0.87296358  0.44484110    -0.11880
C2369       C  0.55895693  0.88621825  0.41811465     0.02050
H2370       H  0.60528364  0.79748575  0.40066397     0.15030
H2371       H  0.51066425  0.89398791  0.46090973     0.15030
C2372       C  0.56660291  0.92873808  0.42007730     0.36690
C2373       C  0.56077318  0.77432874  0.46874085     0.36590
N2374       N  0.57251439  0.96233986  0.42571617    -0.43660
N2375       N  0.55663501  0.75299807  0.49632905    -0.43650
C2376       C  0.58928769  0.90166127  0.33222650    -0.00070
C2377       C  0.60309173  0.93354002  0.30706823    -0.11940
C2378       C  0.57670821  0.96439293  0.29369871     0.02170
C2379       C  0.53585282  0.96537813  0.30849467    -0.00150
C2380       C  0.52435175  0.93140411  0.33074778    -0.11880
C2381       C  0.54744263  0.89724934  0.33119470     0.02050
H2382       H  0.63384786  0.93512001  0.29800523     0.15030
H2383       H  0.49730627  0.93077508  0.34758021     0.15030
C2384       C  0.53053817  0.86368669  0.31017892     0.36690
C2385       C  0.59559045  0.99884997  0.27456111     0.36590
N2386       N  0.51681667  0.83857705  0.29034097    -0.43660
N2387       N  0.61202351  0.02706765  0.26185201    -0.43650
C2388       C  0.64301974  0.89851493  0.39445162    -0.00070
C2389       C  0.64922519  0.88176004  0.43422486    -0.11940
C2390       C  0.67047152  0.90195976  0.46406988     0.02170
C2391       C  0.67070686  0.94451075  0.46337482    -0.00150
C2392       C  0.67248426  0.95943631  0.42195048    -0.11880
C2393       C  0.66249176  0.93546681  0.38764145     0.02050
H2394       H  0.64473116  0.84994346  0.43908444     0.15030
H2395       H  0.68715606  0.98674238  0.41463115     0.15030
C2396       C  0.68571617  0.94154327  0.35067143     0.36690
C2397       C  0.70788253  0.88130196  0.46387211     0.36590
N2398       N  0.70580557  0.94599224  0.32184216    -0.43660
N2399       N  0.73646259  0.86259055  0.46019903    -0.43650
C2400       C  0.86134050  0.61443002  0.41337358    -0.00070
C2401       C  0.82147896  0.61399272  0.42760837    -0.11940
C2402       C  0.80926987  0.58687953  0.45956862     0.02170
C2403       C  0.83208888  0.55168518  0.46840212    -0.00150
C2404       C  0.86886085  0.55072077  0.44860743    -0.11880
C2405       C  0.88554162  0.58571891  0.43315687     0.02050
H2406       H  0.80145666  0.63741726  0.41813257     0.15030
H2407       H  0.88922813  0.52745465  0.45538838     0.15030
C2408       C  0.92122741  0.59655930  0.45456379     0.36690
C2409       C  0.77541187  0.59865632  0.48331710     0.36590
N2410       N  0.94991902  0.60216629  0.47317279    -0.43660
N2411       N  0.74872381  0.61124164  0.50140097    -0.43650
C2412       C  0.90867029  0.61871088  0.35248927    -0.00070
C2413       C  0.94439366  0.60385553  0.37012734    -0.11940
C2414       C  0.95830254  0.56515617  0.36214625     0.02170
C2415       C  0.95053493  0.54754481  0.32455413    -0.00150
C2416       C  0.92088601  0.56582561  0.30061541    -0.11880
C2417       C  0.89781056  0.59819963  0.31548453     0.02050
H2418       H  0.95759263  0.61857484  0.39548798     0.15030
H2419       H  0.91081247  0.54998019  0.27435757     0.15030
C2420       C  0.86079859  0.60388121  0.29453034     0.36690
C2421       C  0.96791843  0.53885593  0.39606634     0.36590
N2422       N  0.83081591  0.60594348  0.27732657    -0.43660
N2423       N  0.97303392  0.51585204  0.42236390    -0.43650
C2424       C  0.90314310  0.67793658  0.40672902    -0.00070
C2425       C  0.94211940  0.69075364  0.39695513    -0.11940
C2426       C  0.96856036  0.70441518  0.42813653     0.02170
C2427       C  0.95656951  0.70305103  0.47018263    -0.00150
C2428       C  0.91498982  0.71174048  0.47252251    -0.11880
C2429       C  0.88803819  0.69678038  0.44243624     0.02050
H2430       H  0.95164227  0.68937946  0.36534773     0.15030
H2431       H  0.90246271  0.72434239  0.50011351     0.15030
C2432       C  0.84597365  0.70316483  0.44792546     0.36690
C2433       C  0.00580516  0.72132046  0.41502865     0.36590
N2434       N  0.81232933  0.70937913  0.45208771    -0.43660
N2435       N  0.03699379  0.73016916  0.40239833    -0.43650
C2436       C  0.85733706  0.90563993  0.39906196    -0.00070
C2437       C  0.81825310  0.91631492  0.40943173    -0.11940
C2438       C  0.81183876  0.94542041  0.43976777     0.02170
C2439       C  0.84279295  0.96376798  0.46167583    -0.00150
C2440       C  0.88140530  0.95364818  0.45110290    -0.11880
C2441       C  0.88885232  0.92664980  0.41988590     0.02050
H2442       H  0.79310379  0.90231637  0.39440417     0.15030
H2443       H  0.90596558  0.96459649  0.46954873     0.15030
C2444       C  0.93013950  0.92021320  0.41210658     0.36690
C2445       C  0.77365155  0.95559690  0.45238948     0.36590
N2446       N  0.96381581  0.91571031  0.40797705    -0.43660
N2447       N  0.74747511  0.96965022  0.46913929    -0.43650
C2448       C  0.89433652  0.84469087  0.38932866    -0.00070
C2449       C  0.93107479  0.83257594  0.37599038    -0.11940
C2450       C  0.95953287  0.81813700  0.40303070     0.02170
C2451       C  0.95361430  0.81850607  0.44724020    -0.00150
C2452       C  0.91297673  0.82117179  0.45883325    -0.11880
C2453       C  0.88337749  0.83083386  0.42938899     0.02050
H2454       H  0.93770977  0.83269659  0.34408793     0.15030
H2455       H  0.90323592  0.81589890  0.48974192     0.15030
C2456       C  0.84184591  0.82537054  0.43928162     0.36690
C2457       C  0.99317011  0.80321660  0.38097531     0.36590
N2458       N  0.80814039  0.82002842  0.44481444    -0.43660
N2459       N  0.01751591  0.79198161  0.35877711    -0.43650
C2460       C  0.88747959  0.90288712  0.32947414    -0.00070
C2461       C  0.87116195  0.94098946  0.32544531    -0.11940
C2462       C  0.89657411  0.97427447  0.32616656     0.02170
C2463       C  0.93759648  0.97141398  0.31291173    -0.00150
C2464       C  0.94668678  0.93314141  0.29676122    -0.11880
C2465       C  0.92300793  0.89856736  0.30623833     0.02050
H2466       H  0.83997670  0.94473042  0.33356727     0.15030
H2467       H  0.97164309  0.93019280  0.27588863     0.15030
C2468       C  0.92755423  0.86427120  0.28005557     0.36690
C2469       C  0.87787801  0.00725425  0.34623080     0.36590
N2470       N  0.93072296  0.83691804  0.25878995    -0.43660
N2471       N  0.85911269  0.03137685  0.36224762    -0.43650
N2472       N  0.67068332  0.69185912  0.71255067    -0.06030
N2473       N  0.64313841  0.67860523  0.68651587    -0.58150
N2474       N  0.69803088  0.67061082  0.80846442    -0.05710
N2475       N  0.68718306  0.64041847  0.83318968    -0.60280
N2476       N  0.66930522  0.69743362  0.80697915    -0.05310
N2477       N  0.63944843  0.68591158  0.83146656    -0.58130
N2478       N  0.70036695  0.66609030  0.71406538    -0.04990
N2479       N  0.69326453  0.63602927  0.68829346    -0.60630
C2480       C  0.65780178  0.64443243  0.66987643     0.96150
C2481       C  0.65107874  0.65070069  0.84877914     0.95920
N2482       N  0.82460785  0.70731411  0.80775974    -0.06220
N2483       N  0.85553230  0.70159342  0.83244662    -0.58730
N2484       N  0.79828648  0.67221537  0.71476793    -0.04340
N2485       N  0.80897495  0.64359240  0.68894915    -0.59980
N2486       N  0.82402417  0.70219009  0.71222032    -0.06250
N2487       N  0.85220345  0.69410654  0.68467757    -0.59000
N2488       N  0.79800662  0.67824816  0.81239242    -0.03980
N2489       N  0.81076921  0.65289314  0.84156359    -0.60070
Mn2490     Mn  0.74885820  0.67139658  0.76278259     1.18440
C2491       C  0.84706524  0.66767950  0.85417791     0.98230
C2492       C  0.84226267  0.65763921  0.66913034     0.98890
N2493       N  0.66291133  0.79719279  0.80150609    -0.06270
N2494       N  0.63219213  0.80842646  0.82507670    -0.62570
N2495       N  0.69181693  0.82232603  0.70549039    -0.05070
N2496       N  0.68013757  0.85091085  0.67953162    -0.63250
N2497       N  0.66498627  0.79297580  0.70666574    -0.05770
N2498       N  0.63499112  0.80172809  0.68146727    -0.62840
N2499       N  0.69020057  0.82610680  0.80003995    -0.04670
N2500       N  0.67813644  0.85666507  0.82258072    -0.63530
Mn2501     Mn  0.66677302  0.74474519  0.75685260     1.10660
C2502       C  0.64218348  0.84560980  0.83906619     0.99450
C2503       C  0.64446256  0.83810629  0.66440542     0.99530
N2504       N  0.82027222  0.79942659  0.70775757    -0.05780
N2505       N  0.85033788  0.80936331  0.68273944    -0.61150
N2506       N  0.79009897  0.83046112  0.80110536    -0.05100
N2507       N  0.80105750  0.86065973  0.82542457    -0.57880
N2508       N  0.81755855  0.80247234  0.80223954    -0.06410
N2509       N  0.84635575  0.81273944  0.82760846    -0.60720
N2510       N  0.79165061  0.82618848  0.70534704    -0.05400
N2511       N  0.80212652  0.85432496  0.67792238    -0.57910
Mn2512     Mn  0.82118584  0.75277165  0.75722297     1.20190
Mn2513     Mn  0.74103273  0.82655779  0.75296988     1.10090
Cl2514     Cl  0.74399987  0.74890228  0.75734740    -0.85880
C2515       C  0.83887765  0.84356279  0.66362989     0.96460
C2516       C  0.83599365  0.84869568  0.84300566     0.96250
C2517       C  0.86816917  0.87495430  0.86431392    -0.02400
C2518       C  0.87946911  0.64522683  0.88088008    -0.02400
C2519       C  0.61500716  0.87550527  0.86366919    -0.02400
C2520       C  0.62229614  0.62298139  0.87423220    -0.02400
C2521       C  0.96841440  0.50702981  0.81406180     0.00650
C2522       C  0.51096463  0.50434504  0.81230664     0.00650
C2523       C  0.86470341  0.86825556  0.63198365    -0.02400
C2524       C  0.61912310  0.86153610  0.63163066    -0.02400
C2525       C  0.98963347  0.81936217  0.97764049     0.00650
C2526       C  0.99070377  0.81709474  0.52128431     0.00650
C2527       C  0.63554660  0.61608619  0.63840968    -0.02400
C2528       C  0.97275845  0.49873367  0.68356657     0.00650
C2529       C  0.51447284  0.49171094  0.68163045     0.00650
C2530       C  0.67601755  0.97017929  0.50411043     0.00650
C2531       C  0.68140919  0.51283108  0.50346148     0.00650
C2532       C  0.98140885  0.68864093  0.50993398     0.00650
C2533       C  0.52246003  0.67626309  0.50985709     0.00650
C2534       C  0.87042055  0.63330346  0.63999528    -0.02400
C2535       C  0.83545562  0.98214899  0.50366709     0.00650
C2536       C  0.82716483  0.52351904  0.50583260     0.00650
C2537       C  0.83432919  0.54631782  0.54439668    -0.00070
C2538       C  0.80385977  0.56631882  0.56584003    -0.11940
C2539       C  0.81248854  0.59339928  0.59813109     0.02170
C2540       C  0.85272512  0.59990086  0.61068531    -0.00150
C2541       C  0.88215407  0.57827640  0.58858618    -0.11880
C2542       C  0.87370540  0.55312948  0.55633327     0.02050
H2543       H  0.77338710  0.56166300  0.55651125     0.15030
H2544       H  0.91332437  0.58451292  0.59291193     0.15030
C2545       C  0.90676017  0.53758648  0.53335412     0.36690
C2546       C  0.78028861  0.61776076  0.61218691     0.36590
N2547       N  0.93285390  0.52622545  0.51343589    -0.43660
N2548       N  0.75427635  0.63800442  0.62204691    -0.43650
C2549       C  0.95370475  0.67999170  0.54838866    -0.00070
C2550       C  0.91684996  0.66099378  0.54006461    -0.11940
C2551       C  0.88458947  0.66292405  0.56680903     0.02170
C2552       C  0.89154216  0.66438373  0.60923761    -0.00150
C2553       C  0.92507232  0.68754975  0.61941200    -0.11880
C2554       C  0.95695012  0.69357510  0.59042616     0.02050
H2555       H  0.91036842  0.64938685  0.51032885     0.15030
H2556       H  0.93000198  0.69375856  0.65173672     0.15030
C2557       C  0.99297726  0.70533849  0.61017372     0.36690
C2558       C  0.84492988  0.66483566  0.55008480     0.36590
N2559       N  0.01874952  0.71333446  0.63225916    -0.43660
N2560       N  0.81323158  0.66777861  0.53665666    -0.43650
C2561       C  0.95091340  0.53908539  0.68416250    -0.00070
C2562       C  0.91173419  0.54165932  0.70009747    -0.11940
C2563       C  0.88612504  0.57385346  0.69087357     0.02170
C2564       C  0.90009002  0.60778242  0.66752681    -0.00150
C2565       C  0.94135041  0.60716338  0.65821514    -0.11880
C2566       C  0.96239504  0.57150657  0.65928571     0.02050
H2567       H  0.89890381  0.51676328  0.71693218     0.15030
H2568       H  0.95583101  0.62937953  0.63984669     0.15030
C2569       C  0.99091355  0.56611302  0.62775201     0.36690
C2570       C  0.84440684  0.56660112  0.69933560     0.36690
N2571       N  0.01440036  0.55989661  0.60311037    -0.43660
N2572       N  0.81117294  0.55896323  0.70571683    -0.43650
C2573       C  0.54477302  0.66235567  0.54797375    -0.00070
C2574       C  0.56801963  0.68961738  0.57053204    -0.11940
C2575       C  0.59739394  0.67770287  0.59928281     0.02170
C2576       C  0.60359811  0.63627916  0.60835858    -0.00150
C2577       C  0.58176070  0.60944038  0.58314337    -0.11880
C2578       C  0.55387188  0.62181184  0.55343747     0.02050
H2579       H  0.56438170  0.72124006  0.56449465     0.15030
H2580       H  0.58800320  0.57776211  0.58550817     0.15030
C2581       C  0.53504371  0.59169480  0.52856250     0.36690
C2582       C  0.62387405  0.70927967  0.61207838     0.36590
N2583       N  0.51913871  0.56607474  0.51135723    -0.43660
N2584       N  0.64496764  0.73557468  0.62033776    -0.43650
C2585       C  0.66714885  0.59674579  0.60746927    -0.00070
C2586       C  0.69026695  0.56218077  0.61396099    -0.11940
C2587       C  0.69807116  0.53524890  0.58101520     0.02170
C2588       C  0.68313748  0.54265611  0.54075006    -0.00150
C2589       C  0.67306922  0.58378346  0.53446592    -0.11880
C2590       C  0.67045540  0.61085716  0.56684270     0.02050
H2591       H  0.70202953  0.55600101  0.64434055     0.15030
H2592       H  0.67001519  0.59700104  0.50427981     0.15030
C2593       C  0.68307410  0.65160159  0.55972148     0.36690
C2594       C  0.72418167  0.50290694  0.58889703     0.36590
N2595       N  0.69672582  0.68324607  0.55501276    -0.43660
N2596       N  0.74424689  0.47618402  0.59657145    -0.43650
C2597       C  0.60949436  0.58397502  0.66395528    -0.00070
C2598       C  0.61777438  0.54265420  0.66523985    -0.11940
C2599       C  0.58934454  0.51338265  0.67662185     0.02170
C2600       C  0.54914882  0.52333477  0.68471535    -0.00150
C2601       C  0.54438039  0.56380126  0.69457344    -0.11880
C2602       C  0.57300790  0.59392814  0.68401385     0.02050
H2603       H  0.64713239  0.53177388  0.66210762     0.15030
H2604       H  0.51703002  0.57248551  0.70777715     0.15030
C2605       C  0.56302163  0.63472025  0.69312400     0.36690
C2606       C  0.60538751  0.47654027  0.69201519     0.36590
N2607       N  0.55453977  0.66713156  0.70133409    -0.43660
N2608       N  0.61944689  0.94935583  0.70861133    -0.43650
C2609       C  0.59900805  0.83112605  0.60139683    -0.00070
C2610       C  0.56504581  0.81051883  0.61597358    -0.11940
C2611       C  0.53066144  0.80568908  0.59155951     0.02170
C2612       C  0.52972242  0.81865385  0.54886537    -0.00150
C2613       C  0.56660471  0.83565457  0.53500345    -0.11880
C2614       C  0.60138191  0.83539978  0.55848116     0.02050
H2615       H  0.56273065  0.80469728  0.64884644     0.15030
H2616       H  0.57099854  0.84999664  0.50604237     0.15030
C2617       C  0.63735954  0.82514293  0.53685014     0.36690
C2618       C  0.49639934  0.79396838  0.61580115     0.36590
N2619       N  0.66566774  0.81531812  0.51931752    -0.43660
N2620       N  0.97102296  0.78549321  0.63870263    -0.43650
C2621       C  0.67192289  0.94603866  0.54468886    -0.00070
C2622       C  0.64557628  0.95748014  0.57616482    -0.11940
C2623       C  0.64446117  0.93470455  0.61301484     0.02170
C2624       C  0.64761749  0.89281971  0.60884571    -0.00150
C2625       C  0.67988071  0.88257948  0.58394205    -0.11880
C2626       C  0.69365835  0.91047328  0.55385841     0.02050
H2627       H  0.63263574  0.98687243  0.57540342     0.15030
H2628       H  0.69384210  0.85369620  0.58767464     0.15030
C2629       C  0.73329227  0.90579338  0.54023502     0.36690
C2630       C  0.67142766  0.94984264  0.64377811     0.36590
N2631       N  0.76512124  0.90023690  0.52884145    -0.43660
N2632       N  0.69383360  0.96091328  0.66829247    -0.43650
C2633       C  0.58208988  0.88651023  0.64763087    -0.00070
C2634       C  0.56322017  0.90992395  0.61736271    -0.11940
C2635       C  0.54336385  0.94472046  0.62756295     0.02170
C2636       C  0.52847295  0.95032291  0.66795905    -0.00150
C2637       C  0.53697530  0.91950154  0.69708476    -0.11880
C2638       C  0.56541170  0.88902542  0.68787432     0.02050
H2639       H  0.57237773  0.90665082  0.58552948     0.15030
H2640       H  0.52678057  0.92281611  0.72849960     0.15030
C2641       C  0.58051250  0.86487062  0.72097923     0.36690
C2642       C  0.54933076  0.97662497  0.59799053     0.36590
N2643       N  0.59387393  0.84574294  0.74725683    -0.43660
N2644       N  0.55721907  0.99954001  0.57218761    -0.43650
C2645       C  0.95421879  0.82616016  0.54613033    -0.00070
C2646       C  0.92575705  0.79704088  0.55953465    -0.11940
C2647       C  0.89713815  0.80648173  0.59061951     0.02170
C2648       C  0.90044613  0.84344193  0.61215885    -0.00150
C2649       C  0.93783533  0.86271317  0.60634203    -0.11880
C2650       C  0.95647719  0.86155608  0.56831834     0.02050
H2651       H  0.92602097  0.76766949  0.54615699     0.15030
H2652       H  0.95080042  0.88203534  0.62918078     0.15030
C2653       C  0.98230335  0.89408065  0.55494556     0.36690
C2654       C  0.86708081  0.77695713  0.60119189     0.36590
N2655       N  0.00299691  0.91894879  0.54165567    -0.43660
N2656       N  0.84288589  0.75313233  0.60912346    -0.43650
C2657       C  0.83665079  0.94984905  0.53916046    -0.00070
C2658       C  0.84602554  0.90933460  0.52830749    -0.11940
C2659       C  0.84331979  0.87709927  0.55625338     0.02170
C2660       C  0.83609128  0.88410283  0.59784361    -0.00150
C2661       C  0.81593221  0.91956099  0.60616899    -0.11880
C2662       C  0.82295327  0.95356713  0.58090281     0.02050
H2663       H  0.85169340  0.90038701  0.49717543     0.15030
H2664       H  0.80669391  0.92408589  0.63789306     0.15030
C2665       C  0.82772164  0.98805809  0.60590181     0.36690
C2666       C  0.83339682  0.83821953  0.54049226     0.36590
N2667       N  0.83194908  0.01171696  0.63112852    -0.43660
N2668       N  0.82376290  0.80694960  0.52903505    -0.43650
C2669       C  0.94392660  0.96551938  0.67272720    -0.00070
C2670       C  0.91976984  0.94603764  0.70241251    -0.11940
C2671       C  0.89046373  0.91723834  0.69186058     0.02170
C2672       C  0.88470424  0.90759658  0.65011094    -0.00150
C2673       C  0.90280094  0.93446503  0.62113541    -0.11880
C2674       C  0.93302638  0.96078021  0.63177790     0.02050
H2675       H  0.92098142  0.95656911  0.73309041     0.15030
H2676       H  0.89885325  0.92976790  0.58858152     0.15030
C2677       C  0.95460488  0.97987867  0.59911949     0.36690
C2678       C  0.86322096  0.90361900  0.72331509     0.36590
N2679       N  0.97263232  0.99348134  0.57211669    -0.43660
N2680       N  0.84056015  0.89367516  0.74842414    -0.43650
C2681       C  0.60105303  0.59397341  0.84374079    -0.00070
C2682       C  0.57319224  0.60477207  0.81363853    -0.11940
C2683       C  0.54082981  0.57836442  0.80435387     0.02170
C2684       C  0.53826400  0.53971073  0.82402798    -0.00150
C2685       C  0.57056374  0.52978541  0.84984595    -0.11880
C2686       C  0.60474414  0.55318261  0.84950693     0.02050
H2687       H  0.57398835  0.63495313  0.80115309     0.15030
H2688       H  0.57289493  0.50048480  0.86321219     0.15030
C2689       C  0.64388671  0.53597585  0.84856937     0.36690
C2690       C  0.50969130  0.59478172  0.77933215     0.36590
N2691       N  0.67656600  0.52593426  0.84528843    -0.43660
N2692       N  0.48524652  0.61090492  0.76057410    -0.43650
C2693       C  0.64081452  0.59603693  0.90998486    -0.00070
C2694       C  0.68201195  0.59047996  0.91477022    -0.11940
C2695       C  0.69679730  0.55867134  0.93902040     0.02170
C2696       C  0.67063924  0.53545763  0.96493542    -0.00150
C2697       C  0.63036216  0.54230171  0.96210668    -0.11880
C2698       C  0.61549746  0.57099462  0.93567252     0.02050
H2699       H  0.70298742  0.60739503  0.89619412     0.15030
H2700       H  0.61002289  0.52504554  0.98180193     0.15030
C2701       C  0.57336586  0.56824054  0.93254310     0.36690
C2702       C  0.73462779  0.54390978  0.92540012     0.36590
N2703       N  0.53955996  0.56305400  0.92993571    -0.43660
N2704       N  0.76323946  0.53260306  0.90946438    -0.43650
C2705       C  0.59383905  0.65014858  0.89877950    -0.00070
C2706       C  0.61131710  0.67118607  0.93104708    -0.11940
C2707       C  0.59037281  0.67944916  0.96716372     0.02170
C2708       C  0.54867972  0.66883174  0.97155872    -0.00150
C2709       C  0.53244056  0.64744312  0.93876259    -0.11880
C2710       C  0.55222673  0.64481862  0.90065190     0.02050
H2711       H  0.64319224  0.67726969  0.92967035     0.15030
H2712       H  0.50201262  0.63831989  0.94048440     0.15030
C2713       C  0.52863017  0.65206332  0.86468944     0.36690
C2714       C  0.61446459  0.70021316  0.99665072     0.36590
N2715       N  0.51066484  0.66139224  0.83591012    -0.43660
N2716       N  0.63439919  0.72014259  0.51707311    -0.43650
C2717       C  0.58304270  0.85827358  0.89517074    -0.00070
C2718       C  0.58291572  0.81843884  0.91048681    -0.11940
C2719       C  0.55595405  0.80747722  0.94229783     0.02170
C2720       C  0.52583782  0.83305294  0.95477024    -0.00150
C2721       C  0.52934744  0.87296357  0.94484109    -0.11880
C2722       C  0.55895693  0.88621825  0.91811465     0.02050
H2723       H  0.60528364  0.79748575  0.90066397     0.15030
H2724       H  0.51066425  0.89398791  0.96090972     0.15030
C2725       C  0.56660290  0.92873808  0.92007729     0.36690
C2726       C  0.56077318  0.77432873  0.96874086     0.36590
N2727       N  0.57251439  0.96233986  0.92571617    -0.43660
N2728       N  0.55663500  0.75299807  0.99632905    -0.43650
C2729       C  0.58928769  0.90166126  0.83222650    -0.00070
C2730       C  0.60309173  0.93354002  0.80706823    -0.11940
C2731       C  0.57670821  0.96439293  0.79369871     0.02170
C2732       C  0.53585282  0.96537813  0.80849467    -0.00150
C2733       C  0.52435175  0.93140411  0.83074778    -0.11880
C2734       C  0.54744263  0.89724934  0.83119470     0.02050
H2735       H  0.63384786  0.93512000  0.79800523     0.15030
H2736       H  0.49730627  0.93077507  0.84758021     0.15030
C2737       C  0.53053817  0.86368669  0.81017892     0.36690
C2738       C  0.59559045  0.99884996  0.77456111     0.36590
N2739       N  0.51681667  0.83857705  0.79034097    -0.43660
N2740       N  0.61202351  0.02706764  0.76185201    -0.43650
C2741       C  0.64301974  0.89851493  0.89445162    -0.00070
C2742       C  0.64922519  0.88176004  0.93422486    -0.11940
C2743       C  0.67047152  0.90195975  0.96406988     0.02170
C2744       C  0.67070686  0.94451074  0.96337482    -0.00150
C2745       C  0.67248426  0.95943631  0.92195048    -0.11880
C2746       C  0.66249176  0.93546680  0.88764145     0.02050
H2747       H  0.64473116  0.84994346  0.93908445     0.15030
H2748       H  0.68715606  0.98674238  0.91463115     0.15030
C2749       C  0.68571617  0.94154326  0.85067143     0.36690
C2750       C  0.70788253  0.88130196  0.96387209     0.36590
N2751       N  0.70580557  0.94599224  0.82184216    -0.43660
N2752       N  0.73646260  0.86259055  0.96019901    -0.43650
C2753       C  0.86134050  0.61443002  0.91337359    -0.00070
C2754       C  0.82147896  0.61399272  0.92760837    -0.11940
C2755       C  0.80926987  0.58687953  0.95956861     0.02170
C2756       C  0.83208888  0.55168518  0.96840212    -0.00150
C2757       C  0.86886085  0.55072077  0.94860743    -0.11880
C2758       C  0.88554162  0.58571891  0.93315687     0.02050
H2759       H  0.80145666  0.63741726  0.91813257     0.15030
H2760       H  0.88922813  0.52745465  0.95538838     0.15030
C2761       C  0.92122741  0.59655930  0.95456379     0.36690
C2762       C  0.77541187  0.59865632  0.98331710     0.36590
N2763       N  0.94991902  0.60216629  0.97317279    -0.43660
N2764       N  0.74872381  0.61124164  0.00140097    -0.43650
C2765       C  0.90867029  0.61871088  0.85248927    -0.00070
C2766       C  0.94439366  0.60385553  0.87012734    -0.11940
C2767       C  0.95830254  0.56515618  0.86214625     0.02170
C2768       C  0.95053494  0.54754481  0.82455413    -0.00150
C2769       C  0.92088601  0.56582562  0.80061541    -0.11880
C2770       C  0.89781056  0.59819963  0.81548453     0.02050
H2771       H  0.95759263  0.61857484  0.89548798     0.15030
H2772       H  0.91081247  0.54998019  0.77435757     0.15030
C2773       C  0.86079859  0.60388121  0.79453034     0.36690
C2774       C  0.96791843  0.53885593  0.89606634     0.36590
N2775       N  0.83081591  0.60594347  0.77732658    -0.43660
N2776       N  0.97303392  0.51585204  0.92236390    -0.43650
C2777       C  0.90314310  0.67793658  0.90672902    -0.00070
C2778       C  0.94211940  0.69075365  0.89695514    -0.11940
C2779       C  0.96856036  0.70441518  0.92813654     0.02170
C2780       C  0.95656951  0.70305103  0.97018263    -0.00150
C2781       C  0.91498981  0.71174048  0.97252252    -0.11880
C2782       C  0.88803819  0.69678038  0.94243624     0.02050
H2783       H  0.95164227  0.68937947  0.86534773     0.15030
H2784       H  0.90246270  0.72434239  0.00011351     0.15030
C2785       C  0.84597365  0.70316484  0.94792546     0.36690
C2786       C  0.00580515  0.72132047  0.91502865     0.36590
N2787       N  0.81232932  0.70937913  0.95208771    -0.43660
N2788       N  0.03699378  0.73016917  0.90239833    -0.43650
C2789       C  0.85733706  0.90563993  0.89906196    -0.00070
C2790       C  0.81825311  0.91631492  0.90943173    -0.11940
C2791       C  0.81183876  0.94542041  0.93976776     0.02170
C2792       C  0.84279295  0.96376798  0.96167582    -0.00150
C2793       C  0.88140530  0.95364818  0.95110289    -0.11880
C2794       C  0.88885233  0.92664980  0.91988589     0.02050
H2795       H  0.79310379  0.90231637  0.89440416     0.15030
H2796       H  0.90596558  0.96459649  0.96954873     0.15030
C2797       C  0.93013950  0.92021320  0.91210657     0.36690
C2798       C  0.77365155  0.95559689  0.95238947     0.36590
N2799       N  0.96381582  0.91571032  0.90797704    -0.43660
N2800       N  0.74747511  0.96965021  0.96913928    -0.43650
C2801       C  0.89433653  0.84469087  0.88932865    -0.00070
C2802       C  0.93107480  0.83257595  0.87599038    -0.11940
C2803       C  0.95953288  0.81813701  0.90303069     0.02170
C2804       C  0.95361431  0.81850608  0.94724019    -0.00150
C2805       C  0.91297674  0.82117179  0.95883324    -0.11880
C2806       C  0.88337750  0.83083386  0.92938899     0.02050
H2807       H  0.93770979  0.83269660  0.84408793     0.15030
H2808       H  0.90323593  0.81589890  0.98974192     0.15030
C2809       C  0.84184592  0.82537054  0.93928161     0.36690
C2810       C  0.99317012  0.80321660  0.88097530     0.36590
N2811       N  0.80814040  0.82002842  0.94481443    -0.43660
N2812       N  0.01751592  0.79198162  0.85877710    -0.43650
C2813       C  0.88747960  0.90288711  0.82947413    -0.00070
C2814       C  0.87116196  0.94098946  0.82544530    -0.11940
C2815       C  0.89657412  0.97427446  0.82616656     0.02170
C2816       C  0.93759649  0.97141397  0.81291173    -0.00150
C2817       C  0.94668678  0.93314141  0.79676121    -0.11880
C2818       C  0.92300793  0.89856736  0.80623832     0.02050
H2819       H  0.83997671  0.94473041  0.83356726     0.15030
H2820       H  0.97164310  0.93019280  0.77588862     0.15030
C2821       C  0.92755423  0.86427120  0.78005556     0.36690
C2822       C  0.87787802  0.00725424  0.84623082     0.36590
N2823       N  0.93072297  0.83691804  0.75878993    -0.43660
N2824       N  0.85911271  0.03137682  0.86224765    -0.43650
loop_ 
_geom_bond_atom_site_label_1 
_geom_bond_atom_site_label_2 
_geom_bond_distance 
_geom_bond_site_symmetry_2 
_ccdc_geom_bond_type 
N1            N2   1.332       .  A
N1            N7   1.325       .  A
N1          Mn30   2.297       .  S
N2            C9   1.365       .  A
N3            N5   1.324       .  A
N3            N4   1.330       .  A
N3          Mn19   2.254       .  S
N4           C10   1.359       .  A
N5            N6   1.327       .  A
N5          Mn30   2.260       .  S
N6           C10   1.361       .  A
N7            N8   1.335       .  A
N7          Mn19   2.283       .  S
N8            C9   1.365       .  A
C9           C56   1.586       .  S
C10          C49   1.559       .  S
N11          N17   1.319       .  A
N11          N12   1.329       .  A
N11         Mn41   2.229       .  S
N12          C20   1.356       .  A
N13          N14   1.330       .  A
N13          N15   1.317       .  A
N13         Mn19   2.270       .  S
N14          C21   1.363       .  A
N15          N16   1.330       .  A
N15         Mn41   2.250       .  S
N16          C21   1.364       .  A
N17          N18   1.340       .  A
N17         Mn19   2.323       .  S
N18          C20   1.376       .  A
Mn19        Cl43   2.602       .  S
C20          C47   1.585       .  S
C21          C63   1.573       .  S
N22          N23   1.340       .  A
N22          N28   1.325       .  A
N22         Mn30   2.292       .  S
N23          C31   1.367       .  A
N24          N26   1.325       .  A
N24          N25   1.331       .  A
N24         Mn42   2.270       .  S
N25          C32   1.363       .  A
N26          N27   1.333       .  A
N26         Mn30   2.282       .  S
N27          C32   1.365       .  A
N28          N29   1.329       .  A
N28         Mn42   2.284       .  S
N29          C31   1.363       .  A
Mn30        Cl43   2.593       .  S
C31          C48   1.581       .  S
C32          C53   1.573       .  S
N33          N34   1.329       .  A
N33          N39   1.322       .  A
N33         Mn41   2.228       .  S
N34          C44   1.355       .  A
N35          N36   1.338       .  A
N35          N37   1.321       .  A
N35         Mn42   2.280       .  S
N36          C45   1.368       .  A
N37          N38   1.318       .  A
N37         Mn41   2.230       .  S
N38          C45   1.355       .  A
N39          N40   1.332       .  A
N39         Mn42   2.291       .  S
N40          C44   1.368       .  A
Mn41        Cl43   2.591       .  S
Mn42        Cl43   2.602       .  S
C44          C52   1.564       .  S
C45          C46   1.554       .  S
C46         C318   1.577       .  S
C46         C330   1.570       .  S
C46         C342   1.590       .  S
C47         C282   1.581       .  S
C47         C294   1.620       .  S
C47         C306   1.594       .  S
C48         C246   1.578       .  S
C48         C258   1.600       .  S
C48         C270   1.577       .  S
C49         C210   1.563       .  S
C49         C222   1.595       .  S
C49         C234   1.549       .  S
C50         C297   1.529       .  S
C50        C1051   1.570   1_545  S
C50        C1463   1.432       .  D
C51         C213   1.540       .  S
C51         C967   1.561   1_545  S
C51        C1462   1.432   1_455  D
C52         C177   1.602       .  S
C52         C189   1.563       .  S
C52         C201   1.590       .  S
C53         C138   1.571       .  S
C53         C153   1.584       .  S
C53         C162   1.592       .  S
C54         C333   1.565       .  S
C54        C1661   1.486       .  S
C54         C408   1.420       .  D
C55         C174   1.498       .  S
C55        C1553   1.591       .  S
C55         C407   1.420   1_554  D
C56         C105   1.603       .  S
C56         C114   1.603       .  S
C56         C126   1.599       .  S
C57          C90   1.542   1_565  S
C57         C904   1.511       .  S
C57        C1470   1.423       .  D
C58         C129   1.568   1_565  S
C58         C871   1.536       .  S
C58        C1469   1.423   1_455  D
C59         C150   1.543       .  S
C59         C626   1.595   1_554  S
C59         C766   1.435       .  D
C60         C117   1.578       .  S
C60         C578   1.503   1_554  S
C60         C765   1.435   1_545  D
C61          C78   1.575       .  S
C61         C662   1.613   1_554  S
C61        C1474   1.442       .  D
C62         C102   1.521       .  S
C62         C590   1.544   1_554  S
C62        C1473   1.442   1_455  D
C63          C69   1.588       .  S
C63          C81   1.592       .  S
C63          C93   1.590       .  S
C64         C186   1.572       .  S
C64         C674   1.522   1_554  S
C64         C771   1.416       .  D
C65          C66   1.493       .  S
C65         C638   1.537   1_554  S
C65         C770   1.416   1_545  D
C66          C67   1.412       .  A
C66          C71   1.396       .  A
C67          C68   1.422       .  A
C67          H72   1.078       .  S
C68          C69   1.427       .  A
C68          C75   1.436       .  S
C69          C70   1.426       .  A
C70          C71   1.379       .  A
C70          H73   1.074       .  S
C71          C74   1.438       .  S
C74          N76   1.156       .  T
C75          N77   1.156       .  T
C78          C79   1.413       .  A
C78          C83   1.448       .  A
C79          C80   1.387       .  A
C79          H84   1.068       .  S
C80          C81   1.400       .  A
C80          C87   1.442       .  S
C81          C82   1.402       .  A
C82          C83   1.432       .  A
C82          H85   1.086       .  S
C83          C86   1.425       .  S
C86          N88   1.157       .  T
C87          N89   1.156       .  T
C90          C91   1.414       .  A
C90          C95   1.395       .  A
C91          C92   1.415       .  A
C91          H96   1.076       .  S
C92          C93   1.431       .  A
C92          C99   1.442       .  S
C93          C94   1.416       .  A
C94          C95   1.392       .  A
C94          H97   1.060       .  S
C95          C98   1.412       .  S
C98         N100   1.143       .  T
C99         N101   1.158       .  T
C102        C103   1.408       .  A
C102        C107   1.402       .  A
C103        C104   1.419       .  A
C103        H108   1.082       .  S
C104        C105   1.430       .  A
C104        C111   1.439       .  S
C105        C106   1.422       .  A
C106        C107   1.410       .  A
C106        H109   1.084       .  S
C107        C110   1.441       .  S
C110        N112   1.155       .  T
C111        N113   1.157       .  T
C114        C115   1.413       .  A
C114        C119   1.400       .  A
C115        C116   1.431       .  A
C115        H120   1.083       .  S
C116        C117   1.423       .  A
C116        C123   1.421       .  S
C117        C118   1.432       .  A
C118        C119   1.398       .  A
C118        H121   1.077       .  S
C119        C122   1.438       .  S
C122        N124   1.157       .  T
C123        N125   1.150   1_545  T
C126        C127   1.412       .  A
C126        C131   1.428       .  A
C127        C128   1.404       .  A
C127        H132   1.058       .  S
C128        C129   1.416       .  A
C128        C135   1.435   1_545  S
C129        C130   1.404       .  A
C130        C131   1.422       .  A
C130        H133   1.056       .  S
C131        C134   1.441       .  S
C134        N136   1.157       .  T
C135        N843   1.158       .  T
N137        C841   1.158       .  T
C138        C139   1.403       .  A
C138        C143   1.402       .  A
C139        C140   1.412       .  A
C139        H144   1.086       .  S
C140        C141   1.449       .  A
C140        C147   1.438   1_455  S
C141       C1467   1.591   1_455  S
C141        C142   1.425       .  A
C142        C143   1.397       .  A
C142        H145   1.060       .  S
C143        C146   1.440       .  S
C146        N148   1.157       .  T
C147       N1561   1.158       .  T
N149       C1559   1.158       .  T
C150        C151   1.407       .  A
C150        C155   1.431       .  A
C151        C152   1.412       .  A
C151        H156   1.079       .  S
C152        C153   1.413       .  A
C152        C159   1.444       .  S
C153        C154   1.396       .  A
C154        C155   1.416       .  A
C154        H157   1.084       .  S
C155        C158   1.410       .  S
C158        N160   1.146       .  T
C159        N161   1.159       .  T
C162        C163   1.407       .  A
C162        C167   1.423       .  A
C163        C164   1.389       .  A
C163        H168   1.084       .  S
C164        C165   1.417       .  A
C164        C171   1.439       .  S
C165        C764   1.536       .  S
C165        C166   1.423       .  A
C166        C167   1.436       .  A
C166        H169   1.082       .  S
C167        C170   1.436       .  S
C170        N172   1.156       .  T
C171        N173   1.157       .  T
C174        C175   1.420       .  A
C174        C179   1.394       .  A
C175        C176   1.430       .  A
C175        H180   1.078       .  S
C176        C177   1.430       .  A
C176        C183   1.441       .  S
C177        C178   1.415       .  A
C178        C179   1.383       .  A
C178        H181   1.079       .  S
C179        C182   1.445       .  S
C182        N184   1.156       .  T
C183        N185   1.157       .  T
C186        C187   1.441       .  A
C186        C191   1.437       .  A
C187        C188   1.403       .  A
C187        H192   1.074   1_554  S
C188        C189   1.394       .  A
C188        C195   1.439       .  S
C189        C190   1.399       .  A
C190        C191   1.412       .  A
C190        H193   1.087       .  S
C191        C194   1.426       .  S
C194        N196   1.154       .  T
C195        N197   1.157       .  T
C198        C763   1.511       .  S
C198        C199   1.406       .  A
C198        C203   1.392       .  A
C199        C200   1.415       .  A
C199        H204   1.062       .  S
C200        C201   1.411       .  A
C200        C207   1.435       .  S
C201        C202   1.423       .  A
C202        C203   1.383       .  A
C202        H205   1.080       .  S
C203        C206   1.423       .  S
C206        N208   1.150       .  T
C207        N209   1.156       .  T
C210        C211   1.403       .  A
C210        C215   1.382       .  A
C211        C212   1.428       .  A
C211        H216   1.083       .  S
C212        C213   1.437       .  A
C212        C219   1.437       .  S
C213        C214   1.414       .  A
C214        C215   1.381       .  A
C214        H217   1.071       .  S
C215        C218   1.440       .  S
C218        N220   1.155       .  T
C219        N221   1.158   1_455  T
C222        C223   1.406       .  A
C222        C227   1.442       .  A
C223        C224   1.412       .  A
C223        H228   1.076       .  S
C224        C225   1.430       .  A
C224        C231   1.436       .  S
C225        C413   1.503       .  S
C225        C226   1.376       .  A
C226        C227   1.380       .  A
C226        H229   1.089       .  S
C227        C230   1.420       .  S
C230        N232   1.149       .  T
C231        N233   1.157       .  T
C234        C235   1.397       .  A
C234        C239   1.406       .  A
C235        C236   1.396       .  A
C235        H240   1.087       .  S
C236        C237   1.445       .  A
C236        C243   1.437       .  S
C237        C415   1.544       .  S
C237        C238   1.399       .  A
C238        C239   1.406       .  A
C238        H241   1.063       .  S
C239        C242   1.435       .  S
C242        N244   1.157       .  T
C243        N598   1.156       .  T
N245        C596   1.156   1_554  T
C246        C247   1.417       .  A
C246        C251   1.451       .  A
C247        C248   1.412       .  A
C247        H252   1.081       .  S
C248        C249   1.392       .  A
C248        C255   1.406       .  S
C249       C1466   1.486   1_455  S
C249        C250   1.373       .  A
C250        C251   1.382       .  A
C250        H253   1.083       .  S
C251        C254   1.444       .  S
C254        N256   1.156       .  T
C255        N257   1.146       .  T
C258        C259   1.409       .  A
C258        C263   1.411       .  A
C259        C260   1.432       .  A
C259        H264   1.072       .  S
C260        C261   1.451       .  A
C260        C267   1.442       .  S
C261        C757   1.561       .  S
C261        C262   1.390       .  A
C262        C263   1.387       .  A
C262        H265   1.057   1_455  S
C263        C266   1.433       .  S
C266        N268   1.157       .  T
C267        N269   1.159       .  T
C270        C271   1.420       .  A
C270        C275   1.406       .  A
C271        C272   1.384       .  A
C271        H276   1.083       .  S
C272        C273   1.423       .  A
C272        C279   1.439       .  S
C273        C412   1.595       .  S
C273        C274   1.431       .  A
C274        C275   1.419       .  A
C274        H277   1.057       .  S
C275        C278   1.439       .  S
C278        N280   1.158       .  T
C279        N281   1.157       .  T
C282        C283   1.413       .  A
C282        C287   1.415       .  A
C283        C284   1.426       .  A
C283        H288   1.081       .  S
C284        C285   1.438       .  A
C284        C291   1.431       .  S
C285        C418   1.537       .  S
C285        C286   1.389       .  A
C286        C287   1.380       .  A
C286        H289   1.063       .  S
C287        C290   1.433       .  S
C290        N292   1.154       .  T
C291        N293   1.154       .  T
C294        C295   1.423       .  A
C294        C299   1.437       .  A
C295        C296   1.406       .  A
C295        H300   1.061       .  S
C296        C297   1.386       .  A
C296        C303   1.442       .  S
C297        C298   1.407       .  A
C298        C299   1.425       .  A
C298        H301   1.064       .  S
C299        C302   1.433       .  S
C302        N304   1.156       .  T
C303        N305   1.158       .  T
C306        C307   1.405       .  A
C306        C311   1.420       .  A
C307        C308   1.426       .  A
C307        H312   1.075       .  S
C308        C309   1.422       .  A
C308        C315   1.427       .  S
C309        C414   1.613       .  S
C309        C310   1.430       .  A
C310        C311   1.426       .  A
C310        H313   1.080       .  S
C311        C314   1.440       .  S
C314        N316   1.157       .  T
C315        N317   1.156       .  T
C318        C319   1.403       .  A
C318        C323   1.439       .  A
C319        C320   1.410       .  A
C319        H324   1.082       .  S
C320        C321   1.402       .  A
C320        C327   1.390       .  S
C321        C417   1.522       .  S
C321        C322   1.385       .  A
C322        C323   1.389       .  A
C322        H325   1.084       .  S
C323        C326   1.426       .  S
C326        N328   1.149       .  T
C327        N329   1.139       .  T
C330        C331   1.371       .  A
C330        C335   1.422       .  A
C331        C332   1.388       .  A
C331        H336   1.059       .  S
C332        C333   1.449       .  A
C332        C339   1.431       .  S
C333        C334   1.416       .  A
C334        C335   1.420       .  A
C334        H337   1.067       .  S
C335        C338   1.438       .  S
C338        N340   1.156       .  T
C339        N341   1.155       .  T
C342        C343   1.397       .  A
C342        C347   1.417       .  A
C343        C344   1.395       .  A
C343        H348   1.086       .  S
C344        C345   1.444       .  A
C344        C351   1.435       .  S
C345        C756   1.570       .  S
C345        C346   1.424       .  A
C346        C347   1.426       .  A
C346        H349   1.081       .  S
C347        C350   1.444       .  S
C350        N352   1.158       .  T
C351        N353   1.155       .  T
N354        N355   1.332       .  A
N354        N360   1.325       .  A
N354       Mn383   2.297       .  S
N355        C362   1.365       .  A
N356        N358   1.324       .  A
N356        N357   1.330       .  A
N356       Mn372   2.254       .  S
N357        C363   1.359       .  A
N358        N359   1.327       .  A
N358       Mn383   2.260       .  S
N359        C363   1.361       .  A
N360        N361   1.335       .  A
N360       Mn372   2.283       .  S
N361        C362   1.365       .  A
C362        C409   1.586       .  S
C363        C402   1.559       .  S
N364        N370   1.319       .  A
N364        N365   1.329       .  A
N364       Mn394   2.229       .  S
N365        C373   1.356       .  A
N366        N367   1.330       .  A
N366        N368   1.317       .  A
N366       Mn372   2.270       .  S
N367        C374   1.363       .  A
N368        N369   1.330       .  A
N368       Mn394   2.250       .  S
N369        C374   1.364       .  A
N370        N371   1.340       .  A
N370       Mn372   2.323       .  S
N371        C373   1.376       .  A
Mn372      Cl396   2.602       .  S
C373        C400   1.585       .  S
C374        C416   1.573       .  S
N375        N376   1.340       .  A
N375        N381   1.325       .  A
N375       Mn383   2.292       .  S
N376        C384   1.367       .  A
N377        N379   1.325       .  A
N377        N378   1.331       .  A
N377       Mn395   2.270       .  S
N378        C385   1.363       .  A
N379        N380   1.333       .  A
N379       Mn383   2.282       .  S
N380        C385   1.365       .  A
N381        N382   1.329       .  A
N381       Mn395   2.284       .  S
N382        C384   1.363       .  A
Mn383      Cl396   2.593       .  S
C384        C401   1.581       .  S
C385        C406   1.573       .  S
N386        N387   1.329       .  A
N386        N392   1.322       .  A
N386       Mn394   2.228       .  S
N387        C397   1.355       .  A
N388        N389   1.338       .  A
N388        N390   1.321       .  A
N388       Mn395   2.280       .  S
N389        C398   1.368       .  A
N390        N391   1.318       .  A
N390       Mn394   2.230       .  S
N391        C398   1.355       .  A
N392        N393   1.332       .  A
N392       Mn395   2.291       .  S
N393        C397   1.368       .  A
Mn394      Cl396   2.591       .  S
Mn395      Cl396   2.602       .  S
C397        C405   1.564       .  S
C398        C399   1.554       .  S
C399        C671   1.577       .  S
C399        C683   1.570       .  S
C399        C695   1.590       .  S
C400        C635   1.581       .  S
C400        C647   1.620       .  S
C400        C659   1.594       .  S
C401        C599   1.578       .  S
C401        C611   1.600       .  S
C401        C623   1.577       .  S
C402        C563   1.563       .  S
C402        C575   1.595       .  S
C402        C587   1.549       .  S
C403        C650   1.529       .  S
C403       C1404   1.570   1_545  S
C403       C1816   1.432       .  D
C404        C566   1.540       .  S
C404       C1320   1.561   1_545  S
C404       C1815   1.432   1_455  D
C405        C530   1.602       .  S
C405        C542   1.563       .  S
C405        C554   1.590       .  S
C406        C491   1.571       .  S
C406        C506   1.584       .  S
C406        C515   1.592       .  S
C407       C2014   1.486       .  S
C407        C686   1.565       .  S
C408       C1906   1.591       .  S
C408        C527   1.498       .  S
C409        C458   1.603       .  S
C409        C467   1.603       .  S
C409        C479   1.599       .  S
C410        C443   1.542   1_565  S
C410       C1257   1.511       .  S
C410       C1823   1.423       .  D
C411        C482   1.568   1_565  S
C411       C1224   1.536       .  S
C411       C1822   1.423   1_455  D
C412        C503   1.543       .  S
C412       C1119   1.435       .  D
C413        C470   1.578       .  S
C413       C1118   1.435   1_545  D
C414        C431   1.575       .  S
C414       C1827   1.442       .  D
C415        C455   1.521       .  S
C415       C1826   1.442   1_455  D
C416        C422   1.588       .  S
C416        C434   1.592       .  S
C416        C446   1.590       .  S
C417        C539   1.572       .  S
C417       C1124   1.416       .  D
C418        C419   1.493       .  S
C418       C1123   1.416   1_545  D
C419        C420   1.412       .  A
C419        C424   1.396       .  A
C420        C421   1.422       .  A
C420        H425   1.078       .  S
C421        C422   1.427       .  A
C421        C428   1.436       .  S
C422        C423   1.426       .  A
C423        C424   1.379       .  A
C423        H426   1.074       .  S
C424        C427   1.438       .  S
C427        N429   1.156       .  T
C428        N430   1.156       .  T
C431        C432   1.413       .  A
C431        C436   1.448       .  A
C432        C433   1.387       .  A
C432        H437   1.068       .  S
C433        C434   1.400       .  A
C433        C440   1.442       .  S
C434        C435   1.402       .  A
C435        C436   1.432       .  A
C435        H438   1.086       .  S
C436        C439   1.425       .  S
C439        N441   1.157       .  T
C440        N442   1.156       .  T
C443        C444   1.414       .  A
C443        C448   1.395       .  A
C444        C445   1.415       .  A
C444        H449   1.076       .  S
C445        C446   1.431       .  A
C445        C452   1.442       .  S
C446        C447   1.416       .  A
C447        C448   1.392       .  A
C447        H450   1.060       .  S
C448        C451   1.412       .  S
C451        N453   1.143       .  T
C452        N454   1.158       .  T
C455        C456   1.408       .  A
C455        C460   1.402       .  A
C456        C457   1.419       .  A
C456        H461   1.082       .  S
C457        C458   1.430       .  A
C457        C464   1.439       .  S
C458        C459   1.422       .  A
C459        C460   1.410       .  A
C459        H462   1.084       .  S
C460        C463   1.441       .  S
C463        N465   1.155       .  T
C464        N466   1.157       .  T
C467        C468   1.413       .  A
C467        C472   1.400       .  A
C468        C469   1.431       .  A
C468        H473   1.083       .  S
C469        C470   1.423       .  A
C469        C476   1.421       .  S
C470        C471   1.432       .  A
C471        C472   1.398       .  A
C471        H474   1.077       .  S
C472        C475   1.438       .  S
C475        N477   1.157       .  T
C476        N478   1.150   1_545  T
C479        C480   1.412       .  A
C479        C484   1.428       .  A
C480        C481   1.404       .  A
C480        H485   1.058       .  S
C481        C482   1.416       .  A
C481        C488   1.435   1_545  S
C482        C483   1.404       .  A
C483        C484   1.422       .  A
C483        H486   1.056       .  S
C484        C487   1.441       .  S
C487        N489   1.157       .  T
C488       N1196   1.158       .  T
N490       C1194   1.158       .  T
C491        C492   1.403       .  A
C491        C496   1.402       .  A
C492        C493   1.412       .  A
C492        H497   1.086       .  S
C493        C494   1.449       .  A
C493        C500   1.438   1_455  S
C494       C1820   1.591   1_455  S
C494        C495   1.425       .  A
C495        C496   1.397       .  A
C495        H498   1.060       .  S
C496        C499   1.440       .  S
C499        N501   1.157       .  T
C500       N1914   1.158       .  T
N502       C1912   1.158       .  T
C503        C504   1.407       .  A
C503        C508   1.431       .  A
C504        C505   1.412       .  A
C504        H509   1.079       .  S
C505        C506   1.413       .  A
C505        C512   1.444       .  S
C506        C507   1.396       .  A
C507        C508   1.416       .  A
C507        H510   1.084       .  S
C508        C511   1.410       .  S
C511        N513   1.146       .  T
C512        N514   1.159       .  T
C515        C516   1.407       .  A
C515        C520   1.423       .  A
C516        C517   1.389       .  A
C516        H521   1.084       .  S
C517        C518   1.417       .  A
C517        C524   1.439       .  S
C518       C1117   1.536       .  S
C518        C519   1.423       .  A
C519        C520   1.436       .  A
C519        H522   1.082       .  S
C520        C523   1.436       .  S
C523        N525   1.156       .  T
C524        N526   1.157       .  T
C527        C528   1.420       .  A
C527        C532   1.394       .  A
C528        C529   1.430       .  A
C528        H533   1.078       .  S
C529        C530   1.430       .  A
C529        C536   1.441       .  S
C530        C531   1.415       .  A
C531        C532   1.383       .  A
C531        H534   1.079       .  S
C532        C535   1.445       .  S
C535        N537   1.156       .  T
C536        N538   1.157       .  T
C539        C540   1.441       .  A
C539        C544   1.437       .  A
C540        C541   1.403       .  A
C540        H545   1.074       .  S
C541        C542   1.394       .  A
C541        C548   1.439       .  S
C542        C543   1.399       .  A
C543        C544   1.412       .  A
C543        H546   1.087       .  S
C544        C547   1.426       .  S
C547        N549   1.154       .  T
C548        N550   1.157       .  T
C551       C1116   1.511       .  S
C551        C552   1.406       .  A
C551        C556   1.392       .  A
C552        C553   1.415       .  A
C552        H557   1.062       .  S
C553        C554   1.411       .  A
C553        C560   1.435       .  S
C554        C555   1.423       .  A
C555        C556   1.383       .  A
C555        H558   1.080       .  S
C556        C559   1.423       .  S
C559        N561   1.150       .  T
C560        N562   1.156       .  T
C563        C564   1.403       .  A
C563        C568   1.382       .  A
C564        C565   1.428       .  A
C564        H569   1.083       .  S
C565        C566   1.437       .  A
C565        C572   1.437       .  S
C566        C567   1.414       .  A
C567        C568   1.381       .  A
C567        H570   1.071       .  S
C568        C571   1.440       .  S
C571        N573   1.155       .  T
C572        N574   1.158   1_455  T
C575        C576   1.406       .  A
C575        C580   1.442       .  A
C576        C577   1.412       .  A
C576        H581   1.076       .  S
C577        C578   1.430       .  A
C577        C584   1.436       .  S
C578        C579   1.376       .  A
C579        C580   1.380       .  A
C579        H582   1.089       .  S
C580        C583   1.420       .  S
C583        N585   1.149       .  T
C584        N586   1.157       .  T
C587        C588   1.397       .  A
C587        C592   1.406       .  A
C588        C589   1.396       .  A
C588        H593   1.087       .  S
C589        C590   1.445       .  A
C589        C596   1.437       .  S
C590        C591   1.399       .  A
C591        C592   1.406       .  A
C591        H594   1.063       .  S
C592        C595   1.435       .  S
C595        N597   1.157       .  T
C599        C600   1.417       .  A
C599        C604   1.451       .  A
C600        C601   1.412       .  A
C600        H605   1.081       .  S
C601        C602   1.392       .  A
C601        C608   1.406       .  S
C602       C1819   1.486   1_455  S
C602        C603   1.373       .  A
C603        C604   1.382       .  A
C603        H606   1.083       .  S
C604        C607   1.444       .  S
C607        N609   1.156       .  T
C608        N610   1.146       .  T
C611        C612   1.409       .  A
C611        C616   1.411       .  A
C612        C613   1.432       .  A
C612        H617   1.072       .  S
C613        C614   1.451       .  A
C613        C620   1.442       .  S
C614       C1110   1.561       .  S
C614        C615   1.390       .  A
C615        C616   1.387       .  A
C615        H618   1.057   1_455  S
C616        C619   1.433       .  S
C619        N621   1.157       .  T
C620        N622   1.159       .  T
C623        C624   1.420       .  A
C623        C628   1.406       .  A
C624        C625   1.384       .  A
C624        H629   1.083       .  S
C625        C626   1.423       .  A
C625        C632   1.439       .  S
C626        C627   1.431       .  A
C627        C628   1.419       .  A
C627        H630   1.057       .  S
C628        C631   1.439       .  S
C631        N633   1.158       .  T
C632        N634   1.157       .  T
C635        C636   1.413       .  A
C635        C640   1.415       .  A
C636        C637   1.426       .  A
C636        H641   1.081       .  S
C637        C638   1.438       .  A
C637        C644   1.431       .  S
C638        C639   1.389       .  A
C639        C640   1.380       .  A
C639        H642   1.063       .  S
C640        C643   1.433       .  S
C643        N645   1.154       .  T
C644        N646   1.154   1_556  T
C647        C648   1.423       .  A
C647        C652   1.437       .  A
C648        C649   1.406       .  A
C648        H653   1.061       .  S
C649        C650   1.386       .  A
C649        C656   1.442       .  S
C650        C651   1.407       .  A
C651        C652   1.425       .  A
C651        H654   1.064       .  S
C652        C655   1.433       .  S
C655        N657   1.156       .  T
C656        N658   1.158       .  T
C659        C660   1.405       .  A
C659        C664   1.420       .  A
C660        C661   1.426       .  A
C660        H665   1.075       .  S
C661        C662   1.422       .  A
C661        C668   1.427       .  S
C662        C663   1.430       .  A
C663        C664   1.426       .  A
C663        H666   1.080   1_556  S
C664        C667   1.440       .  S
C667        N669   1.157       .  T
C668        N670   1.156       .  T
C671        C672   1.403       .  A
C671        C676   1.439       .  A
C672        C673   1.410       .  A
C672        H677   1.082       .  S
C673        C674   1.402       .  A
C673        C680   1.390       .  S
C674        C675   1.385       .  A
C675        C676   1.389       .  A
C675        H678   1.084       .  S
C676        C679   1.426       .  S
C679        N681   1.149       .  T
C680        N682   1.139       .  T
C683        C684   1.371       .  A
C683        C688   1.422       .  A
C684        C685   1.388       .  A
C684        H689   1.059       .  S
C685        C686   1.449       .  A
C685        C692   1.431       .  S
C686        C687   1.416       .  A
C687        C688   1.420       .  A
C687        H690   1.067       .  S
C688        C691   1.438       .  S
C691        N693   1.156       .  T
C692        N694   1.155       .  T
C695        C696   1.397       .  A
C695        C700   1.417       .  A
C696        C697   1.395       .  A
C696        H701   1.086       .  S
C697        C698   1.444       .  A
C697        C704   1.435       .  S
C698       C1109   1.570       .  S
C698        C699   1.424       .  A
C699        C700   1.426       .  A
C699        H702   1.081       .  S
C700        C703   1.444       .  S
C703        N705   1.158       .  T
C704        N706   1.155       .  T
N707        N708   1.332       .  A
N707        N713   1.325       .  A
N707       Mn736   2.297       .  S
N708        C715   1.365       .  A
N709        N711   1.324       .  A
N709        N710   1.330       .  A
N709       Mn725   2.254       .  S
N710        C716   1.359       .  A
N711        N712   1.327       .  A
N711       Mn736   2.260       .  S
N712        C716   1.361       .  A
N713        N714   1.335       .  A
N713       Mn725   2.283       .  S
N714        C715   1.365       .  A
C715        C762   1.586       .  S
C716        C755   1.559       .  S
N717        N723   1.319       .  A
N717        N718   1.329       .  A
N717       Mn747   2.229       .  S
N718        C726   1.356       .  A
N719        N720   1.330       .  A
N719        N721   1.317       .  A
N719       Mn725   2.270       .  S
N720        C727   1.363       .  A
N721        N722   1.330       .  A
N721       Mn747   2.250       .  S
N722        C727   1.364       .  A
N723        N724   1.340       .  A
N723       Mn725   2.323       .  S
N724        C726   1.376       .  A
Mn725      Cl749   2.602       .  S
C726        C753   1.585       .  S
C727        C769   1.573       .  S
N728        N729   1.340       .  A
N728        N734   1.325       .  A
N728       Mn736   2.292       .  S
N729        C737   1.367       .  A
N730        N732   1.325       .  A
N730        N731   1.331       .  A
N730       Mn748   2.270       .  S
N731        C738   1.363       .  A
N732        N733   1.333       .  A
N732       Mn736   2.282       .  S
N733        C738   1.365       .  A
N734        N735   1.329       .  A
N734       Mn748   2.284       .  S
N735        C737   1.363       .  A
Mn736      Cl749   2.593       .  S
C737        C754   1.581       .  S
C738        C759   1.573       .  S
N739        N740   1.329       .  A
N739        N745   1.322       .  A
N739       Mn747   2.228       .  S
N740        C750   1.355       .  A
N741        N742   1.338       .  A
N741        N743   1.321       .  A
N741       Mn748   2.280       .  S
N742        C751   1.368       .  A
N743        N744   1.318       .  A
N743       Mn747   2.230       .  S
N744        C751   1.355       .  A
N745        N746   1.332       .  A
N745       Mn748   2.291       .  S
N746        C750   1.368       .  A
Mn747      Cl749   2.591       .  S
Mn748      Cl749   2.602       .  S
C750        C758   1.564       .  S
C751        C752   1.554       .  S
C752       C1024   1.577       .  S
C752       C1036   1.570       .  S
C752       C1048   1.590       .  S
C753        C988   1.581       .  S
C753       C1000   1.620       .  S
C753       C1012   1.594       .  S
C754        C952   1.578       .  S
C754        C964   1.600       .  S
C754        C976   1.577       .  S
C755        C916   1.563       .  S
C755        C928   1.595       .  S
C755        C940   1.549       .  S
C756       C1003   1.529       .  S
C756       C2169   1.432       .  D
C757        C919   1.540       .  S
C757       C2168   1.432   1_455  D
C758        C883   1.602       .  S
C758        C895   1.563       .  S
C758        C907   1.590       .  S
C759        C844   1.571       .  S
C759        C859   1.584       .  S
C759        C868   1.592       .  S
C760       C2367   1.486       .  S
C760       C1039   1.565       .  S
C760       C1114   1.420       .  D
C761       C2259   1.591       .  S
C761        C880   1.498       .  S
C761       C1113   1.420   1_554  D
C762        C811   1.603       .  S
C762        C820   1.603       .  S
C762        C832   1.599       .  S
C763        C796   1.542       .  S
C763       C2176   1.423       .  D
C764        C835   1.568       .  S
C764       C2175   1.423   1_455  D
C765        C856   1.543       .  S
C765       C1332   1.595   1_554  S
C766        C823   1.578       .  S
C766       C1284   1.503   1_554  S
C767        C784   1.575       .  S
C767       C1368   1.613   1_554  S
C767       C2180   1.442       .  D
C768        C808   1.521       .  S
C768       C1296   1.544   1_554  S
C768       C2179   1.442   1_455  D
C769        C775   1.588       .  S
C769        C787   1.592       .  S
C769        C799   1.590       .  S
C770        C892   1.572       .  S
C770       C1380   1.522   1_554  S
C771        C772   1.493       .  S
C771       C1344   1.537   1_554  S
C772        C773   1.412       .  A
C772        C777   1.396       .  A
C773        C774   1.422       .  A
C773        H778   1.078       .  S
C774        C775   1.427       .  A
C774        C781   1.436       .  S
C775        C776   1.426       .  A
C776        C777   1.379       .  A
C776        H779   1.074       .  S
C777        C780   1.438       .  S
C780        N782   1.156       .  T
C781        N783   1.156       .  T
C784        C785   1.413       .  A
C784        C789   1.448       .  A
C785        C786   1.387       .  A
C785        H790   1.068       .  S
C786        C787   1.400       .  A
C786        C793   1.442       .  S
C787        C788   1.402       .  A
C788        C789   1.432       .  A
C788        H791   1.086       .  S
C789        C792   1.425       .  S
C792        N794   1.157       .  T
C793        N795   1.156       .  T
C796        C797   1.414       .  A
C796        C801   1.395       .  A
C797        C798   1.415       .  A
C797        H802   1.076       .  S
C798        C799   1.431       .  A
C798        C805   1.442       .  S
C799        C800   1.416       .  A
C800        C801   1.392       .  A
C800        H803   1.060       .  S
C801        C804   1.412       .  S
C804        N806   1.143       .  T
C805        N807   1.158       .  T
C808        C809   1.408       .  A
C808        C813   1.402       .  A
C809        C810   1.419       .  A
C809        H814   1.082       .  S
C810        C811   1.430       .  A
C810        C817   1.439       .  S
C811        C812   1.422       .  A
C812        C813   1.410       .  A
C812        H815   1.084       .  S
C813        C816   1.441       .  S
C816        N818   1.155       .  T
C817        N819   1.157       .  T
C820        C821   1.413       .  A
C820        C825   1.400       .  A
C821        C822   1.431       .  A
C821        H826   1.083       .  S
C822        C823   1.423       .  A
C822        C829   1.421       .  S
C823        C824   1.432       .  A
C824        C825   1.398       .  A
C824        H827   1.077       .  S
C825        C828   1.438       .  S
C828        N830   1.157       .  T
C829        N831   1.150       .  T
C832        C833   1.412       .  A
C832        C837   1.428       .  A
C833        C834   1.404       .  A
C833        H838   1.058       .  S
C834        C835   1.416       .  A
C834        C841   1.435       .  S
C835        C836   1.404       .  A
C836        C837   1.422       .  A
C836        H839   1.056       .  S
C837        C840   1.441       .  S
C840        N842   1.157       .  T
C844        C845   1.403       .  A
C844        C849   1.402       .  A
C845        C846   1.412       .  A
C845        H850   1.086       .  S
C846        C847   1.449       .  A
C846        C853   1.438   1_455  S
C847       C2173   1.591   1_455  S
C847        C848   1.425       .  A
C848        C849   1.397       .  A
C848        H851   1.060       .  S
C849        C852   1.440       .  S
C852        N854   1.157       .  T
C853       N2267   1.158       .  T
N855       C2265   1.158       .  T
C856        C857   1.407       .  A
C856        C861   1.431       .  A
C857        C858   1.412       .  A
C857        H862   1.079       .  S
C858        C859   1.413       .  A
C858        C865   1.444       .  S
C859        C860   1.396       .  A
C860        C861   1.416       .  A
C860        H863   1.084       .  S
C861        C864   1.410       .  S
C864        N866   1.146       .  T
C865        N867   1.159       .  T
C868        C869   1.407       .  A
C868        C873   1.423       .  A
C869        C870   1.389       .  A
C869        H874   1.084       .  S
C870        C871   1.417       .  A
C870        C877   1.439       .  S
C871        C872   1.423       .  A
C872        C873   1.436       .  A
C872        H875   1.082       .  S
C873        C876   1.436       .  S
C876        N878   1.156       .  T
C877        N879   1.157       .  T
C880        C881   1.420       .  A
C880        C885   1.394       .  A
C881        C882   1.430       .  A
C881        H886   1.078       .  S
C882        C883   1.430       .  A
C882        C889   1.441       .  S
C883        C884   1.415       .  A
C884        C885   1.383       .  A
C884        H887   1.079       .  S
C885        C888   1.445       .  S
C888        N890   1.156       .  T
C889        N891   1.157       .  T
C892        C893   1.441       .  A
C892        C897   1.437       .  A
C893        C894   1.403       .  A
C893        H898   1.074   1_554  S
C894        C895   1.394       .  A
C894        C901   1.439       .  S
C895        C896   1.399       .  A
C896        C897   1.412       .  A
C896        H899   1.087       .  S
C897        C900   1.426       .  S
C900        N902   1.154   1_565  T
C901        N903   1.157       .  T
C904        C905   1.406       .  A
C904        C909   1.392       .  A
C905        C906   1.415       .  A
C905        H910   1.062       .  S
C906        C907   1.411       .  A
C906        C913   1.435       .  S
C907        C908   1.423       .  A
C908        C909   1.383       .  A
C908        H911   1.080       .  S
C909        C912   1.423       .  S
C912        N914   1.150       .  T
C913        N915   1.156       .  T
C916        C917   1.403       .  A
C916        C921   1.382       .  A
C917        C918   1.428       .  A
C917        H922   1.083       .  S
C918        C919   1.437       .  A
C918        C925   1.437       .  S
C919        C920   1.414       .  A
C920        C921   1.381       .  A
C920        H923   1.071       .  S
C921        C924   1.440       .  S
C924        N926   1.155       .  T
C925        N927   1.158   1_455  T
C928        C929   1.406       .  A
C928        C933   1.442       .  A
C929        C930   1.412       .  A
C929        H934   1.076       .  S
C930        C931   1.430       .  A
C930        C937   1.436       .  S
C931       C1119   1.503       .  S
C931        C932   1.376       .  A
C932        C933   1.380       .  A
C932        H935   1.089       .  S
C933        C936   1.420       .  S
C936        N938   1.149       .  T
C937        N939   1.157       .  T
C940        C941   1.397       .  A
C940        C945   1.406       .  A
C941        C942   1.396       .  A
C941        H946   1.087       .  S
C942        C943   1.445       .  A
C942        C949   1.437       .  S
C943       C1121   1.544       .  S
C943        C944   1.399       .  A
C944        C945   1.406       .  A
C944        H947   1.063       .  S
C945        C948   1.435       .  S
C948        N950   1.157       .  T
C949       N1304   1.156       .  T
N951       C1302   1.156   1_554  T
C952        C953   1.417       .  A
C952        C957   1.451       .  A
C953        C954   1.412       .  A
C953        H958   1.081       .  S
C954        C955   1.392       .  A
C954        C961   1.406       .  S
C955       C2172   1.486   1_455  S
C955        C956   1.373       .  A
C956        C957   1.382       .  A
C956        H959   1.083       .  S
C957        C960   1.444       .  S
C960        N962   1.156       .  T
C961        N963   1.146       .  T
C964        C965   1.409       .  A
C964        C969   1.411       .  A
C965        C966   1.432       .  A
C965        H970   1.072       .  S
C966        C967   1.451       .  A
C966        C973   1.442       .  S
C967        C968   1.390       .  A
C968        C969   1.387       .  A
C968        H971   1.057   1_455  S
C969        C972   1.433       .  S
C972        N974   1.157       .  T
C973        N975   1.159   1_565  T
C976        C977   1.420       .  A
C976        C981   1.406       .  A
C977        C978   1.384       .  A
C977        H982   1.083       .  S
C978        C979   1.423       .  A
C978        C985   1.439       .  S
C979       C1118   1.595       .  S
C979        C980   1.431       .  A
C980        C981   1.419       .  A
C980        H983   1.057       .  S
C981        C984   1.439       .  S
C984        N986   1.158       .  T
C985        N987   1.157       .  T
C988        C989   1.413       .  A
C988        C993   1.415       .  A
C989        C990   1.426       .  A
C989        H994   1.081       .  S
C990        C991   1.438       .  A
C990        C997   1.431       .  S
C991       C1124   1.537       .  S
C991        C992   1.389       .  A
C992        C993   1.380       .  A
C992        H995   1.063       .  S
C993        C996   1.433       .  S
C996        N998   1.154       .  T
C997        N999   1.154       .  T
C1000      C1001   1.423       .  A
C1000      C1005   1.437       .  A
C1001      C1002   1.406       .  A
C1001      H1006   1.061       .  S
C1002      C1003   1.386       .  A
C1002      C1009   1.442       .  S
C1003      C1004   1.407       .  A
C1004      C1005   1.425       .  A
C1004      H1007   1.064       .  S
C1005      C1008   1.433       .  S
C1008      N1010   1.156       .  T
C1009      N1011   1.158       .  T
C1012      C1013   1.405       .  A
C1012      C1017   1.420       .  A
C1013      C1014   1.426       .  A
C1013      H1018   1.075       .  S
C1014      C1015   1.422       .  A
C1014      C1021   1.427       .  S
C1015      C1120   1.613       .  S
C1015      C1016   1.430       .  A
C1016      C1017   1.426       .  A
C1016      H1019   1.080       .  S
C1017      C1020   1.440       .  S
C1020      N1022   1.157       .  T
C1021      N1023   1.156       .  T
C1024      C1025   1.403       .  A
C1024      C1029   1.439       .  A
C1025      C1026   1.410       .  A
C1025      H1030   1.082       .  S
C1026      C1027   1.402       .  A
C1026      C1033   1.390       .  S
C1027      C1123   1.522       .  S
C1027      C1028   1.385       .  A
C1028      C1029   1.389       .  A
C1028      H1031   1.084       .  S
C1029      C1032   1.426       .  S
C1032      N1034   1.149       .  T
C1033      N1035   1.139       .  T
C1036      C1037   1.371       .  A
C1036      C1041   1.422       .  A
C1037      C1038   1.388       .  A
C1037      H1042   1.059       .  S
C1038      C1039   1.449       .  A
C1038      C1045   1.431       .  S
C1039      C1040   1.416       .  A
C1040      C1041   1.420       .  A
C1040      H1043   1.067       .  S
C1041      C1044   1.438       .  S
C1044      N1046   1.156       .  T
C1045      N1047   1.155       .  T
C1048      C1049   1.397       .  A
C1048      C1053   1.417       .  A
C1049      C1050   1.395       .  A
C1049      H1054   1.086       .  S
C1050      C1051   1.444       .  A
C1050      C1057   1.435   1_565  S
C1051      C1052   1.424       .  A
C1052      C1053   1.426       .  A
C1052      H1055   1.081       .  S
C1053      C1056   1.444       .  S
C1056      N1058   1.158       .  T
C1057      N1059   1.155       .  T
N1060      N1061   1.332       .  A
N1060      N1066   1.325       .  A
N1060     Mn1089   2.297       .  S
N1061      C1068   1.365       .  A
N1062      N1064   1.324       .  A
N1062      N1063   1.330       .  A
N1062     Mn1078   2.254       .  S
N1063      C1069   1.359       .  A
N1064      N1065   1.327       .  A
N1064     Mn1089   2.260       .  S
N1065      C1069   1.361       .  A
N1066      N1067   1.335       .  A
N1066     Mn1078   2.283       .  S
N1067      C1068   1.365       .  A
C1068      C1115   1.586       .  S
C1069      C1108   1.559       .  S
N1070      N1076   1.319       .  A
N1070      N1071   1.329       .  A
N1070     Mn1100   2.229       .  S
N1071      C1079   1.356       .  A
N1072      N1073   1.330       .  A
N1072      N1074   1.317       .  A
N1072     Mn1078   2.270       .  S
N1073      C1080   1.363       .  A
N1074      N1075   1.330       .  A
N1074     Mn1100   2.250       .  S
N1075      C1080   1.364       .  A
N1076      N1077   1.340       .  A
N1076     Mn1078   2.323       .  S
N1077      C1079   1.376       .  A
Mn1078    Cl1102   2.602       .  S
C1079      C1106   1.585       .  S
C1080      C1122   1.573       .  S
N1081      N1082   1.340       .  A
N1081      N1087   1.325       .  A
N1081     Mn1089   2.292       .  S
N1082      C1090   1.367       .  A
N1083      N1085   1.325       .  A
N1083      N1084   1.331       .  A
N1083     Mn1101   2.270       .  S
N1084      C1091   1.363       .  A
N1085      N1086   1.333       .  A
N1085     Mn1089   2.282       .  S
N1086      C1091   1.365       .  A
N1087      N1088   1.329       .  A
N1087     Mn1101   2.284       .  S
N1088      C1090   1.363       .  A
Mn1089    Cl1102   2.593       .  S
C1090      C1107   1.581       .  S
C1091      C1112   1.573       .  S
N1092      N1093   1.329       .  A
N1092      N1098   1.322       .  A
N1092     Mn1100   2.228       .  S
N1093      C1103   1.355       .  A
N1094      N1095   1.338       .  A
N1094      N1096   1.321       .  A
N1094     Mn1101   2.280       .  S
N1095      C1104   1.368       .  A
N1096      N1097   1.318       .  A
N1096     Mn1100   2.230       .  S
N1097      C1104   1.355       .  A
N1098      N1099   1.332       .  A
N1098     Mn1101   2.291       .  S
N1099      C1103   1.368       .  A
Mn1100    Cl1102   2.591       .  S
Mn1101    Cl1102   2.602       .  S
C1103      C1111   1.564       .  S
C1104      C1105   1.554       .  S
C1105      C1377   1.577       .  S
C1105      C1389   1.570       .  S
C1105      C1401   1.590       .  S
C1106      C1341   1.581       .  S
C1106      C1353   1.620       .  S
C1106      C1365   1.594       .  S
C1107      C1305   1.578       .  S
C1107      C1317   1.600       .  S
C1107      C1329   1.577       .  S
C1108      C1269   1.563       .  S
C1108      C1281   1.595       .  S
C1108      C1293   1.549       .  S
C1109      C1356   1.529       .  S
C1109      C2522   1.432       .  D
C1110      C1272   1.540       .  S
C1110      C2521   1.432   1_455  D
C1111      C1236   1.602       .  S
C1111      C1248   1.563       .  S
C1111      C1260   1.590       .  S
C1112      C1197   1.571       .  S
C1112      C1212   1.584       .  S
C1112      C1221   1.592       .  S
C1113      C2720   1.486       .  S
C1113      C1392   1.565       .  S
C1114      C2612   1.591       .  S
C1114      C1233   1.498       .  S
C1115      C1164   1.603       .  S
C1115      C1173   1.603       .  S
C1115      C1185   1.599       .  S
C1116      C1149   1.542       .  S
C1116      C2529   1.423       .  D
C1117      C1188   1.568       .  S
C1117      C2528   1.423   1_455  D
C1118      C1209   1.543       .  S
C1119      C1176   1.578       .  S
C1120      C1137   1.575       .  S
C1120      C2533   1.442       .  D
C1121      C1161   1.521       .  S
C1121      C2532   1.442   1_455  D
C1122      C1128   1.588       .  S
C1122      C1140   1.592       .  S
C1122      C1152   1.590       .  S
C1123      C1245   1.572       .  S
C1124      C1125   1.493       .  S
C1125      C1126   1.412       .  A
C1125      C1130   1.396       .  A
C1126      C1127   1.422       .  A
C1126      H1131   1.078       .  S
C1127      C1128   1.427       .  A
C1127      C1134   1.436       .  S
C1128      C1129   1.426       .  A
C1129      C1130   1.379       .  A
C1129      H1132   1.074       .  S
C1130      C1133   1.438       .  S
C1133      N1135   1.156       .  T
C1134      N1136   1.156       .  T
C1137      C1138   1.413       .  A
C1137      C1142   1.448       .  A
C1138      C1139   1.387       .  A
C1138      H1143   1.068       .  S
C1139      C1140   1.400       .  A
C1139      C1146   1.442       .  S
C1140      C1141   1.402       .  A
C1141      C1142   1.432       .  A
C1141      H1144   1.086       .  S
C1142      C1145   1.425       .  S
C1145      N1147   1.157       .  T
C1146      N1148   1.156       .  T
C1149      C1150   1.414       .  A
C1149      C1154   1.395       .  A
C1150      C1151   1.415       .  A
C1150      H1155   1.076       .  S
C1151      C1152   1.431       .  A
C1151      C1158   1.442       .  S
C1152      C1153   1.416       .  A
C1153      C1154   1.392       .  A
C1153      H1156   1.060       .  S
C1154      C1157   1.412       .  S
C1157      N1159   1.143       .  T
C1158      N1160   1.158       .  T
C1161      C1162   1.408       .  A
C1161      C1166   1.402       .  A
C1162      C1163   1.419       .  A
C1162      H1167   1.082       .  S
C1163      C1164   1.430       .  A
C1163      C1170   1.439       .  S
C1164      C1165   1.422       .  A
C1165      C1166   1.410       .  A
C1165      H1168   1.084       .  S
C1166      C1169   1.441       .  S
C1169      N1171   1.155       .  T
C1170      N1172   1.157       .  T
C1173      C1174   1.413       .  A
C1173      C1178   1.400       .  A
C1174      C1175   1.431       .  A
C1174      H1179   1.083       .  S
C1175      C1176   1.423       .  A
C1175      C1182   1.421       .  S
C1176      C1177   1.432       .  A
C1177      C1178   1.398       .  A
C1177      H1180   1.077       .  S
C1178      C1181   1.438       .  S
C1181      N1183   1.157       .  T
C1182      N1184   1.150       .  T
C1185      C1186   1.412       .  A
C1185      C1190   1.428       .  A
C1186      C1187   1.404       .  A
C1186      H1191   1.058       .  S
C1187      C1188   1.416       .  A
C1187      C1194   1.435       .  S
C1188      C1189   1.404       .  A
C1189      C1190   1.422       .  A
C1189      H1192   1.056       .  S
C1190      C1193   1.441       .  S
C1193      N1195   1.157       .  T
C1197      C1198   1.403       .  A
C1197      C1202   1.402       .  A
C1198      C1199   1.412       .  A
C1198      H1203   1.086       .  S
C1199      C1200   1.449       .  A
C1199      C1206   1.438   1_455  S
C1200      C2526   1.591   1_455  S
C1200      C1201   1.425       .  A
C1201      C1202   1.397       .  A
C1201      H1204   1.060       .  S
C1202      C1205   1.440       .  S
C1205      N1207   1.157       .  T
C1206      N2620   1.158       .  T
N1208      C2618   1.158       .  T
C1209      C1210   1.407       .  A
C1209      C1214   1.431       .  A
C1210      C1211   1.412       .  A
C1210      H1215   1.079       .  S
C1211      C1212   1.413       .  A
C1211      C1218   1.444       .  S
C1212      C1213   1.396       .  A
C1213      C1214   1.416       .  A
C1213      H1216   1.084       .  S
C1214      C1217   1.410       .  S
C1217      N1219   1.146       .  T
C1218      N1220   1.159       .  T
C1221      C1222   1.407       .  A
C1221      C1226   1.423       .  A
C1222      C1223   1.389       .  A
C1222      H1227   1.084       .  S
C1223      C1224   1.417       .  A
C1223      C1230   1.439       .  S
C1224      C1225   1.423       .  A
C1225      C1226   1.436       .  A
C1225      H1228   1.082       .  S
C1226      C1229   1.436       .  S
C1229      N1231   1.156       .  T
C1230      N1232   1.157       .  T
C1233      C1234   1.420       .  A
C1233      C1238   1.394       .  A
C1234      C1235   1.430       .  A
C1234      H1239   1.078       .  S
C1235      C1236   1.430       .  A
C1235      C1242   1.441       .  S
C1236      C1237   1.415       .  A
C1237      C1238   1.383       .  A
C1237      H1240   1.079       .  S
C1238      C1241   1.445       .  S
C1241      N1243   1.156       .  T
C1242      N1244   1.157       .  T
C1245      C1246   1.441       .  A
C1245      C1250   1.437       .  A
C1246      C1247   1.403       .  A
C1246      H1251   1.074       .  S
C1247      C1248   1.394       .  A
C1247      C1254   1.439       .  S
C1248      C1249   1.399       .  A
C1249      C1250   1.412       .  A
C1249      H1252   1.087       .  S
C1250      C1253   1.426       .  S
C1253      N1255   1.154   1_565  T
C1254      N1256   1.157       .  T
C1257      C1258   1.406       .  A
C1257      C1262   1.392       .  A
C1258      C1259   1.415       .  A
C1258      H1263   1.062       .  S
C1259      C1260   1.411       .  A
C1259      C1266   1.435       .  S
C1260      C1261   1.423       .  A
C1261      C1262   1.383       .  A
C1261      H1264   1.080       .  S
C1262      C1265   1.423       .  S
C1265      N1267   1.150       .  T
C1266      N1268   1.156       .  T
C1269      C1270   1.403       .  A
C1269      C1274   1.382       .  A
C1270      C1271   1.428       .  A
C1270      H1275   1.083       .  S
C1271      C1272   1.437       .  A
C1271      C1278   1.437       .  S
C1272      C1273   1.414       .  A
C1273      C1274   1.381       .  A
C1273      H1276   1.071       .  S
C1274      C1277   1.440       .  S
C1277      N1279   1.155       .  T
C1278      N1280   1.158   1_455  T
C1281      C1282   1.406       .  A
C1281      C1286   1.442       .  A
C1282      C1283   1.412       .  A
C1282      H1287   1.076       .  S
C1283      C1284   1.430       .  A
C1283      C1290   1.436       .  S
C1284      C1285   1.376       .  A
C1285      C1286   1.380       .  A
C1285      H1288   1.089       .  S
C1286      C1289   1.420       .  S
C1289      N1291   1.149       .  T
C1290      N1292   1.157       .  T
C1293      C1294   1.397       .  A
C1293      C1298   1.406       .  A
C1294      C1295   1.396       .  A
C1294      H1299   1.087       .  S
C1295      C1296   1.445       .  A
C1295      C1302   1.437       .  S
C1296      C1297   1.399       .  A
C1297      C1298   1.406       .  A
C1297      H1300   1.063       .  S
C1298      C1301   1.435       .  S
C1301      N1303   1.157       .  T
C1305      C1306   1.417       .  A
C1305      C1310   1.451       .  A
C1306      C1307   1.412       .  A
C1306      H1311   1.081       .  S
C1307      C1308   1.392       .  A
C1307      C1314   1.406       .  S
C1308      C2525   1.486   1_455  S
C1308      C1309   1.373       .  A
C1309      C1310   1.382       .  A
C1309      H1312   1.083       .  S
C1310      C1313   1.444       .  S
C1313      N1315   1.156       .  T
C1314      N1316   1.146       .  T
C1317      C1318   1.409       .  A
C1317      C1322   1.411       .  A
C1318      C1319   1.432       .  A
C1318      H1323   1.072       .  S
C1319      C1320   1.451       .  A
C1319      C1326   1.442       .  S
C1320      C1321   1.390       .  A
C1321      C1322   1.387       .  A
C1321      H1324   1.057   1_455  S
C1322      C1325   1.433       .  S
C1325      N1327   1.157       .  T
C1326      N1328   1.159   1_565  T
C1329      C1330   1.420       .  A
C1329      C1334   1.406       .  A
C1330      C1331   1.384       .  A
C1330      H1335   1.083       .  S
C1331      C1332   1.423       .  A
C1331      C1338   1.439       .  S
C1332      C1333   1.431       .  A
C1333      C1334   1.419       .  A
C1333      H1336   1.057       .  S
C1334      C1337   1.439       .  S
C1337      N1339   1.158       .  T
C1338      N1340   1.157       .  T
C1341      C1342   1.413       .  A
C1341      C1346   1.415       .  A
C1342      C1343   1.426       .  A
C1342      H1347   1.081       .  S
C1343      C1344   1.438       .  A
C1343      C1350   1.431       .  S
C1344      C1345   1.389       .  A
C1345      C1346   1.380       .  A
C1345      H1348   1.063       .  S
C1346      C1349   1.433       .  S
C1349      N1351   1.154       .  T
C1350      N1352   1.154   1_556  T
C1353      C1354   1.423       .  A
C1353      C1358   1.437       .  A
C1354      C1355   1.406       .  A
C1354      H1359   1.061       .  S
C1355      C1356   1.386       .  A
C1355      C1362   1.442       .  S
C1356      C1357   1.407       .  A
C1357      C1358   1.425       .  A
C1357      H1360   1.064       .  S
C1358      C1361   1.433       .  S
C1361      N1363   1.156       .  T
C1362      N1364   1.158       .  T
C1365      C1366   1.405       .  A
C1365      C1370   1.420       .  A
C1366      C1367   1.426       .  A
C1366      H1371   1.075       .  S
C1367      C1368   1.422       .  A
C1367      C1374   1.427       .  S
C1368      C1369   1.430       .  A
C1369      C1370   1.426       .  A
C1369      H1372   1.080   1_556  S
C1370      C1373   1.440       .  S
C1373      N1375   1.157       .  T
C1374      N1376   1.156       .  T
C1377      C1378   1.403       .  A
C1377      C1382   1.439       .  A
C1378      C1379   1.410       .  A
C1378      H1383   1.082       .  S
C1379      C1380   1.402       .  A
C1379      C1386   1.390       .  S
C1380      C1381   1.385       .  A
C1381      C1382   1.389       .  A
C1381      H1384   1.084       .  S
C1382      C1385   1.426       .  S
C1385      N1387   1.149       .  T
C1386      N1388   1.139       .  T
C1389      C1390   1.371       .  A
C1389      C1394   1.422       .  A
C1390      C1391   1.388       .  A
C1390      H1395   1.059       .  S
C1391      C1392   1.449       .  A
C1391      C1398   1.431       .  S
C1392      C1393   1.416       .  A
C1393      C1394   1.420       .  A
C1393      H1396   1.067       .  S
C1394      C1397   1.438       .  S
C1397      N1399   1.156       .  T
C1398      N1400   1.155       .  T
C1401      C1402   1.397       .  A
C1401      C1406   1.417       .  A
C1402      C1403   1.395       .  A
C1402      H1407   1.086       .  S
C1403      C1404   1.444       .  A
C1403      C1410   1.435   1_565  S
C1404      C1405   1.424       .  A
C1405      C1406   1.426       .  A
C1405      H1408   1.081       .  S
C1406      C1409   1.444       .  S
C1409      N1411   1.158       .  T
C1410      N1412   1.155       .  T
N1413      N1414   1.332       .  A
N1413      N1419   1.325       .  A
N1413     Mn1442   2.297       .  S
N1414      C1421   1.365       .  A
N1415      N1417   1.324       .  A
N1415      N1416   1.330       .  A
N1415     Mn1431   2.254       .  S
N1416      C1422   1.359       .  A
N1417      N1418   1.327       .  A
N1417     Mn1442   2.260       .  S
N1418      C1422   1.361       .  A
N1419      N1420   1.335       .  A
N1419     Mn1431   2.283       .  S
N1420      C1421   1.365       .  A
C1421      C1468   1.586       .  S
C1422      C1461   1.559       .  S
N1423      N1429   1.319       .  A
N1423      N1424   1.329       .  A
N1423     Mn1453   2.229       .  S
N1424      C1432   1.356       .  A
N1425      N1426   1.330       .  A
N1425      N1427   1.317       .  A
N1425     Mn1431   2.270       .  S
N1426      C1433   1.363       .  A
N1427      N1428   1.330       .  A
N1427     Mn1453   2.250       .  S
N1428      C1433   1.364       .  A
N1429      N1430   1.340       .  A
N1429     Mn1431   2.323       .  S
N1430      C1432   1.376       .  A
Mn1431    Cl1455   2.602       .  S
C1432      C1459   1.585       .  S
C1433      C1475   1.573       .  S
N1434      N1435   1.340       .  A
N1434      N1440   1.325       .  A
N1434     Mn1442   2.292       .  S
N1435      C1443   1.367       .  A
N1436      N1438   1.325       .  A
N1436      N1437   1.331       .  A
N1436     Mn1454   2.270       .  S
N1437      C1444   1.363       .  A
N1438      N1439   1.333       .  A
N1438     Mn1442   2.282       .  S
N1439      C1444   1.365       .  A
N1440      N1441   1.329       .  A
N1440     Mn1454   2.284       .  S
N1441      C1443   1.363       .  A
Mn1442    Cl1455   2.593       .  S
C1443      C1460   1.581       .  S
C1444      C1465   1.573       .  S
N1445      N1446   1.329       .  A
N1445      N1451   1.322       .  A
N1445     Mn1453   2.228       .  S
N1446      C1456   1.355       .  A
N1447      N1448   1.338       .  A
N1447      N1449   1.321       .  A
N1447     Mn1454   2.280       .  S
N1448      C1457   1.368       .  A
N1449      N1450   1.318       .  A
N1449     Mn1453   2.230       .  S
N1450      C1457   1.355       .  A
N1451      N1452   1.332       .  A
N1451     Mn1454   2.291       .  S
N1452      C1456   1.368       .  A
Mn1453    Cl1455   2.591       .  S
Mn1454    Cl1455   2.602       .  S
C1456      C1464   1.564       .  S
C1457      C1458   1.554       .  S
C1458      C1730   1.577       .  S
C1458      C1742   1.570       .  S
C1458      C1754   1.590       .  S
C1459      C1694   1.581       .  S
C1459      C1706   1.620       .  S
C1459      C1718   1.594       .  S
C1460      C1658   1.578       .  S
C1460      C1670   1.600       .  S
C1460      C1682   1.577       .  S
C1461      C1622   1.563       .  S
C1461      C1634   1.595       .  S
C1461      C1646   1.549       .  S
C1462      C1709   1.529       .  S
C1462      C2463   1.570   1_545  S
C1463      C1625   1.540       .  S
C1463      C2379   1.561   1_545  S
C1464      C1589   1.602       .  S
C1464      C1601   1.563       .  S
C1464      C1613   1.590       .  S
C1465      C1550   1.571       .  S
C1465      C1565   1.584       .  S
C1465      C1574   1.592       .  S
C1466      C1745   1.565       .  S
C1466      C1820   1.420       .  D
C1467      C1586   1.498       .  S
C1467      C1819   1.420   1_554  D
C1468      C1517   1.603       .  S
C1468      C1526   1.603       .  S
C1468      C1538   1.599       .  S
C1469      C1502   1.542   1_565  S
C1469      C2316   1.511       .  S
C1470      C1541   1.568   1_565  S
C1470      C2283   1.536       .  S
C1471      C1562   1.543       .  S
C1471      C2038   1.595   1_554  S
C1471      C2178   1.435       .  D
C1472      C1529   1.578       .  S
C1472      C1990   1.503   1_554  S
C1472      C2177   1.435   1_545  D
C1473      C1490   1.575       .  S
C1473      C2074   1.613   1_554  S
C1474      C1514   1.521       .  S
C1474      C2002   1.544   1_554  S
C1475      C1481   1.588       .  S
C1475      C1493   1.592       .  S
C1475      C1505   1.590       .  S
C1476      C1598   1.572       .  S
C1476      C2086   1.522   1_554  S
C1476      C2183   1.416       .  D
C1477      C1478   1.493       .  S
C1477      C2050   1.537   1_554  S
C1477      C2182   1.416   1_545  D
C1478      C1479   1.412       .  A
C1478      C1483   1.396       .  A
C1479      C1480   1.422       .  A
C1479      H1484   1.078       .  S
C1480      C1481   1.427       .  A
C1480      C1487   1.436       .  S
C1481      C1482   1.426       .  A
C1482      C1483   1.379       .  A
C1482      H1485   1.074       .  S
C1483      C1486   1.438       .  S
C1486      N1488   1.156       .  T
C1487      N1489   1.156       .  T
C1490      C1491   1.413       .  A
C1490      C1495   1.448       .  A
C1491      C1492   1.387       .  A
C1491      H1496   1.068       .  S
C1492      C1493   1.400       .  A
C1492      C1499   1.442       .  S
C1493      C1494   1.402       .  A
C1494      C1495   1.432       .  A
C1494      H1497   1.086       .  S
C1495      C1498   1.425       .  S
C1498      N1500   1.157   1_655  T
C1499      N1501   1.156       .  T
C1502      C1503   1.414       .  A
C1502      C1507   1.395       .  A
C1503      C1504   1.415       .  A
C1503      H1508   1.076       .  S
C1504      C1505   1.431       .  A
C1504      C1511   1.442       .  S
C1505      C1506   1.416       .  A
C1506      C1507   1.392       .  A
C1506      H1509   1.060       .  S
C1507      C1510   1.412       .  S
C1510      N1512   1.143   1_655  T
C1511      N1513   1.158       .  T
C1514      C1515   1.408       .  A
C1514      C1519   1.402       .  A
C1515      C1516   1.419       .  A
C1515      H1520   1.082       .  S
C1516      C1517   1.430       .  A
C1516      C1523   1.439       .  S
C1517      C1518   1.422       .  A
C1518      C1519   1.410       .  A
C1518      H1521   1.084       .  S
C1519      C1522   1.441       .  S
C1522      N1524   1.155       .  T
C1523      N1525   1.157       .  T
C1526      C1527   1.413       .  A
C1526      C1531   1.400       .  A
C1527      C1528   1.431       .  A
C1527      H1532   1.083       .  S
C1528      C1529   1.423       .  A
C1528      C1535   1.421       .  S
C1529      C1530   1.432       .  A
C1530      C1531   1.398       .  A
C1530      H1533   1.077       .  S
C1531      C1534   1.438       .  S
C1534      N1536   1.157       .  T
C1535      N1537   1.150   1_545  T
C1538      C1539   1.412       .  A
C1538      C1543   1.428       .  A
C1539      C1540   1.404       .  A
C1539      H1544   1.058       .  S
C1540      C1541   1.416       .  A
C1540      C1547   1.435   1_545  S
C1541      C1542   1.404       .  A
C1542      C1543   1.422       .  A
C1542      H1545   1.056       .  S
C1543      C1546   1.441       .  S
C1546      N1548   1.157       .  T
C1547      N2255   1.158       .  T
N1549      C2253   1.158       .  T
C1550      C1551   1.403       .  A
C1550      C1555   1.402       .  A
C1551      C1552   1.412       .  A
C1551      H1556   1.086       .  S
C1552      C1553   1.449       .  A
C1552      C1559   1.438       .  S
C1553      C1554   1.425       .  A
C1554      C1555   1.397       .  A
C1554      H1557   1.060       .  S
C1555      C1558   1.440       .  S
C1558      N1560   1.157       .  T
C1562      C1563   1.407       .  A
C1562      C1567   1.431       .  A
C1563      C1564   1.412       .  A
C1563      H1568   1.079       .  S
C1564      C1565   1.413       .  A
C1564      C1571   1.444       .  S
C1565      C1566   1.396       .  A
C1566      C1567   1.416       .  A
C1566      H1569   1.084       .  S
C1567      C1570   1.410       .  S
C1570      N1572   1.146       .  T
C1571      N1573   1.159       .  T
C1574      C1575   1.407       .  A
C1574      C1579   1.423       .  A
C1575      C1576   1.389       .  A
C1575      H1580   1.084       .  S
C1576      C1577   1.417       .  A
C1576      C1583   1.439       .  S
C1577      C2176   1.536       .  S
C1577      C1578   1.423       .  A
C1578      C1579   1.436       .  A
C1578      H1581   1.082       .  S
C1579      C1582   1.436       .  S
C1582      N1584   1.156       .  T
C1583      N1585   1.157       .  T
C1586      C1587   1.420       .  A
C1586      C1591   1.394       .  A
C1587      C1588   1.430       .  A
C1587      H1592   1.078       .  S
C1588      C1589   1.430       .  A
C1588      C1595   1.441       .  S
C1589      C1590   1.415       .  A
C1590      C1591   1.383       .  A
C1590      H1593   1.079       .  S
C1591      C1594   1.445       .  S
C1594      N1596   1.156   1_655  T
C1595      N1597   1.157       .  T
C1598      C1599   1.441       .  A
C1598      C1603   1.437       .  A
C1599      C1600   1.403       .  A
C1599      H1604   1.074   1_554  S
C1600      C1601   1.394       .  A
C1600      C1607   1.439       .  S
C1601      C1602   1.399       .  A
C1602      C1603   1.412       .  A
C1602      H1605   1.087       .  S
C1603      C1606   1.426       .  S
C1606      N1608   1.154       .  T
C1607      N1609   1.157       .  T
C1610      C2175   1.511       .  S
C1610      C1611   1.406       .  A
C1610      C1615   1.392       .  A
C1611      C1612   1.415       .  A
C1611      H1616   1.062       .  S
C1612      C1613   1.411       .  A
C1612      C1619   1.435       .  S
C1613      C1614   1.423       .  A
C1614      C1615   1.383       .  A
C1614      H1617   1.080       .  S
C1615      C1618   1.423       .  S
C1618      N1620   1.150       .  T
C1619      N1621   1.156       .  T
C1622      C1623   1.403       .  A
C1622      C1627   1.382       .  A
C1623      C1624   1.428       .  A
C1623      H1628   1.083       .  S
C1624      C1625   1.437       .  A
C1624      C1631   1.437       .  S
C1625      C1626   1.414       .  A
C1626      C1627   1.381       .  A
C1626      H1629   1.071       .  S
C1627      C1630   1.440       .  S
C1630      N1632   1.155       .  T
C1631      N1633   1.158       .  T
C1634      C1635   1.406       .  A
C1634      C1639   1.442       .  A
C1635      C1636   1.412       .  A
C1635      H1640   1.076       .  S
C1636      C1637   1.430       .  A
C1636      C1643   1.436       .  S
C1637      C1825   1.503       .  S
C1637      C1638   1.376       .  A
C1638      C1639   1.380       .  A
C1638      H1641   1.089       .  S
C1639      C1642   1.420       .  S
C1642      N1644   1.149       .  T
C1643      N1645   1.157       .  T
C1646      C1647   1.397       .  A
C1646      C1651   1.406       .  A
C1647      C1648   1.396       .  A
C1647      H1652   1.087       .  S
C1648      C1649   1.445       .  A
C1648      C1655   1.437       .  S
C1649      C1827   1.544       .  S
C1649      C1650   1.399       .  A
C1650      C1651   1.406       .  A
C1650      H1653   1.063       .  S
C1651      C1654   1.435       .  S
C1654      N1656   1.157       .  T
C1655      N2010   1.156       .  T
N1657      C2008   1.156   1_554  T
C1658      C1659   1.417       .  A
C1658      C1663   1.451       .  A
C1659      C1660   1.412       .  A
C1659      H1664   1.081       .  S
C1660      C1661   1.392       .  A
C1660      C1667   1.406       .  S
C1661      C1662   1.373       .  A
C1662      C1663   1.382       .  A
C1662      H1665   1.083       .  S
C1663      C1666   1.444       .  S
C1666      N1668   1.156       .  T
C1667      N1669   1.146       .  T
C1670      C1671   1.409       .  A
C1670      C1675   1.411       .  A
C1671      C1672   1.432       .  A
C1671      H1676   1.072       .  S
C1672      C1673   1.451       .  A
C1672      C1679   1.442       .  S
C1673      C2169   1.561       .  S
C1673      C1674   1.390       .  A
C1674      C1675   1.387       .  A
C1674      H1677   1.057       .  S
C1675      C1678   1.433       .  S
C1678      N1680   1.157       .  T
C1679      N1681   1.159       .  T
C1682      C1683   1.420       .  A
C1682      C1687   1.406       .  A
C1683      C1684   1.384       .  A
C1683      H1688   1.083       .  S
C1684      C1685   1.423       .  A
C1684      C1691   1.439       .  S
C1685      C1824   1.595       .  S
C1685      C1686   1.431       .  A
C1686      C1687   1.419       .  A
C1686      H1689   1.057       .  S
C1687      C1690   1.439       .  S
C1690      N1692   1.158       .  T
C1691      N1693   1.157       .  T
C1694      C1695   1.413       .  A
C1694      C1699   1.415       .  A
C1695      C1696   1.426       .  A
C1695      H1700   1.081       .  S
C1696      C1697   1.438       .  A
C1696      C1703   1.431       .  S
C1697      C1830   1.537       .  S
C1697      C1698   1.389       .  A
C1698      C1699   1.380       .  A
C1698      H1701   1.063       .  S
C1699      C1702   1.433       .  S
C1702      N1704   1.154       .  T
C1703      N1705   1.154       .  T
C1706      C1707   1.423       .  A
C1706      C1711   1.437       .  A
C1707      C1708   1.406       .  A
C1707      H1712   1.061       .  S
C1708      C1709   1.386       .  A
C1708      C1715   1.442       .  S
C1709      C1710   1.407       .  A
C1710      C1711   1.425       .  A
C1710      H1713   1.064       .  S
C1711      C1714   1.433       .  S
C1714      N1716   1.156       .  T
C1715      N1717   1.158       .  T
C1718      C1719   1.405       .  A
C1718      C1723   1.420       .  A
C1719      C1720   1.426       .  A
C1719      H1724   1.075       .  S
C1720      C1721   1.422       .  A
C1720      C1727   1.427   1_655  S
C1721      C1826   1.613       .  S
C1721      C1722   1.430       .  A
C1722      C1723   1.426       .  A
C1722      H1725   1.080       .  S
C1723      C1726   1.440       .  S
C1726      N1728   1.157       .  T
C1727      N1729   1.156       .  T
C1730      C1731   1.403       .  A
C1730      C1735   1.439       .  A
C1731      C1732   1.410       .  A
C1731      H1736   1.082       .  S
C1732      C1733   1.402       .  A
C1732      C1739   1.390       .  S
C1733      C1829   1.522       .  S
C1733      C1734   1.385       .  A
C1734      C1735   1.389       .  A
C1734      H1737   1.084       .  S
C1735      C1738   1.426       .  S
C1738      N1740   1.149       .  T
C1739      N1741   1.139       .  T
C1742      C1743   1.371       .  A
C1742      C1747   1.422       .  A
C1743      C1744   1.388       .  A
C1743      H1748   1.059       .  S
C1744      C1745   1.449       .  A
C1744      C1751   1.431       .  S
C1745      C1746   1.416       .  A
C1746      C1747   1.420       .  A
C1746      H1749   1.067       .  S
C1747      C1750   1.438       .  S
C1750      N1752   1.156       .  T
C1751      N1753   1.155   1_655  T
C1754      C1755   1.397       .  A
C1754      C1759   1.417       .  A
C1755      C1756   1.395       .  A
C1755      H1760   1.086       .  S
C1756      C1757   1.444       .  A
C1756      C1763   1.435       .  S
C1757      C2168   1.570       .  S
C1757      C1758   1.424       .  A
C1758      C1759   1.426       .  A
C1758      H1761   1.081       .  S
C1759      C1762   1.444       .  S
C1762      N1764   1.158       .  T
C1763      N1765   1.155       .  T
N1766      N1767   1.332       .  A
N1766      N1772   1.325       .  A
N1766     Mn1795   2.297       .  S
N1767      C1774   1.365       .  A
N1768      N1770   1.324       .  A
N1768      N1769   1.330       .  A
N1768     Mn1784   2.254       .  S
N1769      C1775   1.359       .  A
N1770      N1771   1.327       .  A
N1770     Mn1795   2.260       .  S
N1771      C1775   1.361       .  A
N1772      N1773   1.335       .  A
N1772     Mn1784   2.283       .  S
N1773      C1774   1.365       .  A
C1774      C1821   1.586       .  S
C1775      C1814   1.559       .  S
N1776      N1782   1.319       .  A
N1776      N1777   1.329       .  A
N1776     Mn1806   2.229       .  S
N1777      C1785   1.356       .  A
N1778      N1779   1.330       .  A
N1778      N1780   1.317       .  A
N1778     Mn1784   2.270       .  S
N1779      C1786   1.363       .  A
N1780      N1781   1.330       .  A
N1780     Mn1806   2.250       .  S
N1781      C1786   1.364       .  A
N1782      N1783   1.340       .  A
N1782     Mn1784   2.323       .  S
N1783      C1785   1.376       .  A
Mn1784    Cl1808   2.602       .  S
C1785      C1812   1.585       .  S
C1786      C1828   1.573       .  S
N1787      N1788   1.340       .  A
N1787      N1793   1.325       .  A
N1787     Mn1795   2.292       .  S
N1788      C1796   1.367       .  A
N1789      N1791   1.325       .  A
N1789      N1790   1.331       .  A
N1789     Mn1807   2.270       .  S
N1790      C1797   1.363       .  A
N1791      N1792   1.333       .  A
N1791     Mn1795   2.282       .  S
N1792      C1797   1.365       .  A
N1793      N1794   1.329       .  A
N1793     Mn1807   2.284       .  S
N1794      C1796   1.363       .  A
Mn1795    Cl1808   2.593       .  S
C1796      C1813   1.581       .  S
C1797      C1818   1.573       .  S
N1798      N1799   1.329       .  A
N1798      N1804   1.322       .  A
N1798     Mn1806   2.228       .  S
N1799      C1809   1.355       .  A
N1800      N1801   1.338       .  A
N1800      N1802   1.321       .  A
N1800     Mn1807   2.280       .  S
N1801      C1810   1.368       .  A
N1802      N1803   1.318       .  A
N1802     Mn1806   2.230       .  S
N1803      C1810   1.355       .  A
N1804      N1805   1.332       .  A
N1804     Mn1807   2.291       .  S
N1805      C1809   1.368       .  A
Mn1806    Cl1808   2.591       .  S
Mn1807    Cl1808   2.602       .  S
C1809      C1817   1.564       .  S
C1810      C1811   1.554       .  S
C1811      C2083   1.577       .  S
C1811      C2095   1.570       .  S
C1811      C2107   1.590       .  S
C1812      C2047   1.581       .  S
C1812      C2059   1.620       .  S
C1812      C2071   1.594       .  S
C1813      C2011   1.578       .  S
C1813      C2023   1.600       .  S
C1813      C2035   1.577       .  S
C1814      C1975   1.563       .  S
C1814      C1987   1.595       .  S
C1814      C1999   1.549       .  S
C1815      C2062   1.529       .  S
C1815      C2816   1.570   1_545  S
C1816      C1978   1.540       .  S
C1816      C2732   1.561   1_545  S
C1817      C1942   1.602       .  S
C1817      C1954   1.563       .  S
C1817      C1966   1.590       .  S
C1818      C1903   1.571       .  S
C1818      C1918   1.584       .  S
C1818      C1927   1.592       .  S
C1819      C2098   1.565       .  S
C1820      C1939   1.498       .  S
C1821      C1870   1.603       .  S
C1821      C1879   1.603       .  S
C1821      C1891   1.599       .  S
C1822      C1855   1.542   1_565  S
C1822      C2669   1.511       .  S
C1823      C1894   1.568   1_565  S
C1823      C2636   1.536       .  S
C1824      C1915   1.543       .  S
C1824      C2531   1.435       .  D
C1825      C1882   1.578       .  S
C1825      C2530   1.435   1_545  D
C1826      C1843   1.575       .  S
C1827      C1867   1.521       .  S
C1828      C1834   1.588       .  S
C1828      C1846   1.592       .  S
C1828      C1858   1.590       .  S
C1829      C1951   1.572       .  S
C1829      C2536   1.416       .  D
C1830      C1831   1.493       .  S
C1830      C2535   1.416   1_545  D
C1831      C1832   1.412       .  A
C1831      C1836   1.396       .  A
C1832      C1833   1.422       .  A
C1832      H1837   1.078       .  S
C1833      C1834   1.427       .  A
C1833      C1840   1.436       .  S
C1834      C1835   1.426       .  A
C1835      C1836   1.379       .  A
C1835      H1838   1.074       .  S
C1836      C1839   1.438       .  S
C1839      N1841   1.156       .  T
C1840      N1842   1.156       .  T
C1843      C1844   1.413       .  A
C1843      C1848   1.448       .  A
C1844      C1845   1.387       .  A
C1844      H1849   1.068       .  S
C1845      C1846   1.400       .  A
C1845      C1852   1.442       .  S
C1846      C1847   1.402       .  A
C1847      C1848   1.432       .  A
C1847      H1850   1.086       .  S
C1848      C1851   1.425       .  S
C1851      N1853   1.157   1_655  T
C1852      N1854   1.156       .  T
C1855      C1856   1.414       .  A
C1855      C1860   1.395       .  A
C1856      C1857   1.415       .  A
C1856      H1861   1.076       .  S
C1857      C1858   1.431       .  A
C1857      C1864   1.442       .  S
C1858      C1859   1.416       .  A
C1859      C1860   1.392       .  A
C1859      H1862   1.060       .  S
C1860      C1863   1.412       .  S
C1863      N1865   1.143   1_655  T
C1864      N1866   1.158       .  T
C1867      C1868   1.408       .  A
C1867      C1872   1.402       .  A
C1868      C1869   1.419       .  A
C1868      H1873   1.082       .  S
C1869      C1870   1.430       .  A
C1869      C1876   1.439       .  S
C1870      C1871   1.422       .  A
C1871      C1872   1.410       .  A
C1871      H1874   1.084       .  S
C1872      C1875   1.441       .  S
C1875      N1877   1.155       .  T
C1876      N1878   1.157       .  T
C1879      C1880   1.413       .  A
C1879      C1884   1.400       .  A
C1880      C1881   1.431       .  A
C1880      H1885   1.083       .  S
C1881      C1882   1.423       .  A
C1881      C1888   1.421       .  S
C1882      C1883   1.432       .  A
C1883      C1884   1.398       .  A
C1883      H1886   1.077       .  S
C1884      C1887   1.438       .  S
C1887      N1889   1.157       .  T
C1888      N1890   1.150   1_545  T
C1891      C1892   1.412       .  A
C1891      C1896   1.428       .  A
C1892      C1893   1.404       .  A
C1892      H1897   1.058       .  S
C1893      C1894   1.416       .  A
C1893      C1900   1.435   1_545  S
C1894      C1895   1.404       .  A
C1895      C1896   1.422       .  A
C1895      H1898   1.056       .  S
C1896      C1899   1.441       .  S
C1899      N1901   1.157       .  T
C1900      N2608   1.158       .  T
N1902      C2606   1.158       .  T
C1903      C1904   1.403       .  A
C1903      C1908   1.402       .  A
C1904      C1905   1.412       .  A
C1904      H1909   1.086       .  S
C1905      C1906   1.449       .  A
C1905      C1912   1.438       .  S
C1906      C1907   1.425       .  A
C1907      C1908   1.397       .  A
C1907      H1910   1.060       .  S
C1908      C1911   1.440       .  S
C1911      N1913   1.157       .  T
C1915      C1916   1.407       .  A
C1915      C1920   1.431       .  A
C1916      C1917   1.412       .  A
C1916      H1921   1.079       .  S
C1917      C1918   1.413       .  A
C1917      C1924   1.444       .  S
C1918      C1919   1.396       .  A
C1919      C1920   1.416       .  A
C1919      H1922   1.084       .  S
C1920      C1923   1.410       .  S
C1923      N1925   1.146       .  T
C1924      N1926   1.159       .  T
C1927      C1928   1.407       .  A
C1927      C1932   1.423       .  A
C1928      C1929   1.389       .  A
C1928      H1933   1.084       .  S
C1929      C1930   1.417       .  A
C1929      C1936   1.439       .  S
C1930      C2529   1.536       .  S
C1930      C1931   1.423       .  A
C1931      C1932   1.436       .  A
C1931      H1934   1.082       .  S
C1932      C1935   1.436       .  S
C1935      N1937   1.156       .  T
C1936      N1938   1.157       .  T
C1939      C1940   1.420       .  A
C1939      C1944   1.394       .  A
C1940      C1941   1.430       .  A
C1940      H1945   1.078       .  S
C1941      C1942   1.430       .  A
C1941      C1948   1.441       .  S
C1942      C1943   1.415       .  A
C1943      C1944   1.383       .  A
C1943      H1946   1.079       .  S
C1944      C1947   1.445       .  S
C1947      N1949   1.156   1_655  T
C1948      N1950   1.157       .  T
C1951      C1952   1.441       .  A
C1951      C1956   1.437       .  A
C1952      C1953   1.403       .  A
C1952      H1957   1.074       .  S
C1953      C1954   1.394       .  A
C1953      C1960   1.439       .  S
C1954      C1955   1.399       .  A
C1955      C1956   1.412       .  A
C1955      H1958   1.087       .  S
C1956      C1959   1.426       .  S
C1959      N1961   1.154       .  T
C1960      N1962   1.157       .  T
C1963      C2528   1.511       .  S
C1963      C1964   1.406       .  A
C1963      C1968   1.392       .  A
C1964      C1965   1.415       .  A
C1964      H1969   1.062       .  S
C1965      C1966   1.411       .  A
C1965      C1972   1.435       .  S
C1966      C1967   1.423       .  A
C1967      C1968   1.383       .  A
C1967      H1970   1.080       .  S
C1968      C1971   1.423       .  S
C1971      N1973   1.150       .  T
C1972      N1974   1.156       .  T
C1975      C1976   1.403       .  A
C1975      C1980   1.382       .  A
C1976      C1977   1.428       .  A
C1976      H1981   1.083       .  S
C1977      C1978   1.437       .  A
C1977      C1984   1.437       .  S
C1978      C1979   1.414       .  A
C1979      C1980   1.381       .  A
C1979      H1982   1.071       .  S
C1980      C1983   1.440       .  S
C1983      N1985   1.155       .  T
C1984      N1986   1.158       .  T
C1987      C1988   1.406       .  A
C1987      C1992   1.442       .  A
C1988      C1989   1.412       .  A
C1988      H1993   1.076       .  S
C1989      C1990   1.430       .  A
C1989      C1996   1.436       .  S
C1990      C1991   1.376       .  A
C1991      C1992   1.380       .  A
C1991      H1994   1.089       .  S
C1992      C1995   1.420       .  S
C1995      N1997   1.149       .  T
C1996      N1998   1.157       .  T
C1999      C2000   1.397       .  A
C1999      C2004   1.406       .  A
C2000      C2001   1.396       .  A
C2000      H2005   1.087       .  S
C2001      C2002   1.445       .  A
C2001      C2008   1.437       .  S
C2002      C2003   1.399       .  A
C2003      C2004   1.406       .  A
C2003      H2006   1.063       .  S
C2004      C2007   1.435       .  S
C2007      N2009   1.157       .  T
C2011      C2012   1.417       .  A
C2011      C2016   1.451       .  A
C2012      C2013   1.412       .  A
C2012      H2017   1.081       .  S
C2013      C2014   1.392       .  A
C2013      C2020   1.406       .  S
C2014      C2015   1.373       .  A
C2015      C2016   1.382       .  A
C2015      H2018   1.083       .  S
C2016      C2019   1.444       .  S
C2019      N2021   1.156       .  T
C2020      N2022   1.146       .  T
C2023      C2024   1.409       .  A
C2023      C2028   1.411       .  A
C2024      C2025   1.432       .  A
C2024      H2029   1.072       .  S
C2025      C2026   1.451       .  A
C2025      C2032   1.442       .  S
C2026      C2522   1.561       .  S
C2026      C2027   1.390       .  A
C2027      C2028   1.387       .  A
C2027      H2030   1.057       .  S
C2028      C2031   1.433       .  S
C2031      N2033   1.157       .  T
C2032      N2034   1.159       .  T
C2035      C2036   1.420       .  A
C2035      C2040   1.406       .  A
C2036      C2037   1.384       .  A
C2036      H2041   1.083       .  S
C2037      C2038   1.423       .  A
C2037      C2044   1.439       .  S
C2038      C2039   1.431       .  A
C2039      C2040   1.419       .  A
C2039      H2042   1.057       .  S
C2040      C2043   1.439       .  S
C2043      N2045   1.158       .  T
C2044      N2046   1.157       .  T
C2047      C2048   1.413       .  A
C2047      C2052   1.415       .  A
C2048      C2049   1.426       .  A
C2048      H2053   1.081       .  S
C2049      C2050   1.438       .  A
C2049      C2056   1.431       .  S
C2050      C2051   1.389       .  A
C2051      C2052   1.380       .  A
C2051      H2054   1.063       .  S
C2052      C2055   1.433       .  S
C2055      N2057   1.154       .  T
C2056      N2058   1.154   1_556  T
C2059      C2060   1.423       .  A
C2059      C2064   1.437       .  A
C2060      C2061   1.406       .  A
C2060      H2065   1.061       .  S
C2061      C2062   1.386       .  A
C2061      C2068   1.442       .  S
C2062      C2063   1.407       .  A
C2063      C2064   1.425       .  A
C2063      H2066   1.064       .  S
C2064      C2067   1.433       .  S
C2067      N2069   1.156       .  T
C2068      N2070   1.158       .  T
C2071      C2072   1.405       .  A
C2071      C2076   1.420       .  A
C2072      C2073   1.426       .  A
C2072      H2077   1.075       .  S
C2073      C2074   1.422       .  A
C2073      C2080   1.427   1_655  S
C2074      C2075   1.430       .  A
C2075      C2076   1.426       .  A
C2075      H2078   1.080   1_556  S
C2076      C2079   1.440       .  S
C2079      N2081   1.157       .  T
C2080      N2082   1.156       .  T
C2083      C2084   1.403       .  A
C2083      C2088   1.439       .  A
C2084      C2085   1.410       .  A
C2084      H2089   1.082       .  S
C2085      C2086   1.402       .  A
C2085      C2092   1.390       .  S
C2086      C2087   1.385       .  A
C2087      C2088   1.389       .  A
C2087      H2090   1.084       .  S
C2088      C2091   1.426       .  S
C2091      N2093   1.149       .  T
C2092      N2094   1.139       .  T
C2095      C2096   1.371       .  A
C2095      C2100   1.422       .  A
C2096      C2097   1.388       .  A
C2096      H2101   1.059       .  S
C2097      C2098   1.449       .  A
C2097      C2104   1.431       .  S
C2098      C2099   1.416       .  A
C2099      C2100   1.420       .  A
C2099      H2102   1.067       .  S
C2100      C2103   1.438       .  S
C2103      N2105   1.156       .  T
C2104      N2106   1.155   1_655  T
C2107      C2108   1.397       .  A
C2107      C2112   1.417       .  A
C2108      C2109   1.395       .  A
C2108      H2113   1.086       .  S
C2109      C2110   1.444       .  A
C2109      C2116   1.435       .  S
C2110      C2521   1.570       .  S
C2110      C2111   1.424       .  A
C2111      C2112   1.426       .  A
C2111      H2114   1.081       .  S
C2112      C2115   1.444       .  S
C2115      N2117   1.158       .  T
C2116      N2118   1.155       .  T
N2119      N2120   1.332       .  A
N2119      N2125   1.325       .  A
N2119     Mn2148   2.297       .  S
N2120      C2127   1.365       .  A
N2121      N2123   1.324       .  A
N2121      N2122   1.330       .  A
N2121     Mn2137   2.254       .  S
N2122      C2128   1.359       .  A
N2123      N2124   1.327       .  A
N2123     Mn2148   2.260       .  S
N2124      C2128   1.361       .  A
N2125      N2126   1.335       .  A
N2125     Mn2137   2.283       .  S
N2126      C2127   1.365       .  A
C2127      C2174   1.586       .  S
C2128      C2167   1.559       .  S
N2129      N2135   1.319       .  A
N2129      N2130   1.329       .  A
N2129     Mn2159   2.229       .  S
N2130      C2138   1.356       .  A
N2131      N2132   1.330       .  A
N2131      N2133   1.317       .  A
N2131     Mn2137   2.270       .  S
N2132      C2139   1.363       .  A
N2133      N2134   1.330       .  A
N2133     Mn2159   2.250       .  S
N2134      C2139   1.364       .  A
N2135      N2136   1.340       .  A
N2135     Mn2137   2.323       .  S
N2136      C2138   1.376       .  A
Mn2137    Cl2161   2.602       .  S
C2138      C2165   1.585       .  S
C2139      C2181   1.573       .  S
N2140      N2141   1.340       .  A
N2140      N2146   1.325       .  A
N2140     Mn2148   2.292       .  S
N2141      C2149   1.367       .  A
N2142      N2144   1.325       .  A
N2142      N2143   1.331       .  A
N2142     Mn2160   2.270       .  S
N2143      C2150   1.363       .  A
N2144      N2145   1.333       .  A
N2144     Mn2148   2.282       .  S
N2145      C2150   1.365       .  A
N2146      N2147   1.329       .  A
N2146     Mn2160   2.284       .  S
N2147      C2149   1.363       .  A
Mn2148    Cl2161   2.593       .  S
C2149      C2166   1.581       .  S
C2150      C2171   1.573       .  S
N2151      N2152   1.329       .  A
N2151      N2157   1.322       .  A
N2151     Mn2159   2.228       .  S
N2152      C2162   1.355       .  A
N2153      N2154   1.338       .  A
N2153      N2155   1.321       .  A
N2153     Mn2160   2.280       .  S
N2154      C2163   1.368       .  A
N2155      N2156   1.318       .  A
N2155     Mn2159   2.230       .  S
N2156      C2163   1.355       .  A
N2157      N2158   1.332       .  A
N2157     Mn2160   2.291       .  S
N2158      C2162   1.368       .  A
Mn2159    Cl2161   2.591       .  S
Mn2160    Cl2161   2.602       .  S
C2162      C2170   1.564       .  S
C2163      C2164   1.554       .  S
C2164      C2436   1.577       .  S
C2164      C2448   1.570       .  S
C2164      C2460   1.590       .  S
C2165      C2400   1.581       .  S
C2165      C2412   1.620       .  S
C2165      C2424   1.594       .  S
C2166      C2364   1.578       .  S
C2166      C2376   1.600       .  S
C2166      C2388   1.577       .  S
C2167      C2328   1.563       .  S
C2167      C2340   1.595       .  S
C2167      C2352   1.549       .  S
C2168      C2415   1.529       .  S
C2169      C2331   1.540       .  S
C2170      C2295   1.602       .  S
C2170      C2307   1.563       .  S
C2170      C2319   1.590       .  S
C2171      C2256   1.571       .  S
C2171      C2271   1.584       .  S
C2171      C2280   1.592       .  S
C2172      C2451   1.565       .  S
C2172      C2526   1.420       .  D
C2173      C2292   1.498       .  S
C2173      C2525   1.420   1_554  D
C2174      C2223   1.603       .  S
C2174      C2232   1.603       .  S
C2174      C2244   1.599       .  S
C2175      C2208   1.542       .  S
C2176      C2247   1.568       .  S
C2177      C2268   1.543       .  S
C2177      C2744   1.595   1_554  S
C2178      C2235   1.578       .  S
C2178      C2696   1.503   1_554  S
C2179      C2196   1.575       .  S
C2179      C2780   1.613   1_554  S
C2180      C2220   1.521       .  S
C2180      C2708   1.544   1_554  S
C2181      C2187   1.588       .  S
C2181      C2199   1.592       .  S
C2181      C2211   1.590       .  S
C2182      C2304   1.572       .  S
C2182      C2792   1.522   1_554  S
C2183      C2184   1.493       .  S
C2183      C2756   1.537   1_554  S
C2184      C2185   1.412       .  A
C2184      C2189   1.396       .  A
C2185      C2186   1.422       .  A
C2185      H2190   1.078       .  S
C2186      C2187   1.427       .  A
C2186      C2193   1.436       .  S
C2187      C2188   1.426       .  A
C2188      C2189   1.379       .  A
C2188      H2191   1.074       .  S
C2189      C2192   1.438       .  S
C2192      N2194   1.156       .  T
C2193      N2195   1.156       .  T
C2196      C2197   1.413       .  A
C2196      C2201   1.448       .  A
C2197      C2198   1.387       .  A
C2197      H2202   1.068       .  S
C2198      C2199   1.400       .  A
C2198      C2205   1.442       .  S
C2199      C2200   1.402       .  A
C2200      C2201   1.432       .  A
C2200      H2203   1.086       .  S
C2201      C2204   1.425       .  S
C2204      N2206   1.157   1_655  T
C2205      N2207   1.156       .  T
C2208      C2209   1.414       .  A
C2208      C2213   1.395       .  A
C2209      C2210   1.415       .  A
C2209      H2214   1.076       .  S
C2210      C2211   1.431       .  A
C2210      C2217   1.442       .  S
C2211      C2212   1.416       .  A
C2212      C2213   1.392       .  A
C2212      H2215   1.060       .  S
C2213      C2216   1.412       .  S
C2216      N2218   1.143   1_655  T
C2217      N2219   1.158       .  T
C2220      C2221   1.408       .  A
C2220      C2225   1.402       .  A
C2221      C2222   1.419       .  A
C2221      H2226   1.082       .  S
C2222      C2223   1.430       .  A
C2222      C2229   1.439       .  S
C2223      C2224   1.422       .  A
C2224      C2225   1.410       .  A
C2224      H2227   1.084       .  S
C2225      C2228   1.441       .  S
C2228      N2230   1.155       .  T
C2229      N2231   1.157       .  T
C2232      C2233   1.413       .  A
C2232      C2237   1.400       .  A
C2233      C2234   1.431       .  A
C2233      H2238   1.083       .  S
C2234      C2235   1.423       .  A
C2234      C2241   1.421       .  S
C2235      C2236   1.432       .  A
C2236      C2237   1.398       .  A
C2236      H2239   1.077       .  S
C2237      C2240   1.438       .  S
C2240      N2242   1.157       .  T
C2241      N2243   1.150       .  T
C2244      C2245   1.412       .  A
C2244      C2249   1.428       .  A
C2245      C2246   1.404       .  A
C2245      H2250   1.058       .  S
C2246      C2247   1.416       .  A
C2246      C2253   1.435       .  S
C2247      C2248   1.404       .  A
C2248      C2249   1.422       .  A
C2248      H2251   1.056       .  S
C2249      C2252   1.441       .  S
C2252      N2254   1.157       .  T
C2256      C2257   1.403       .  A
C2256      C2261   1.402       .  A
C2257      C2258   1.412       .  A
C2257      H2262   1.086       .  S
C2258      C2259   1.449       .  A
C2258      C2265   1.438       .  S
C2259      C2260   1.425       .  A
C2260      C2261   1.397       .  A
C2260      H2263   1.060       .  S
C2261      C2264   1.440       .  S
C2264      N2266   1.157       .  T
C2268      C2269   1.407       .  A
C2268      C2273   1.431       .  A
C2269      C2270   1.412       .  A
C2269      H2274   1.079       .  S
C2270      C2271   1.413       .  A
C2270      C2277   1.444       .  S
C2271      C2272   1.396       .  A
C2272      C2273   1.416       .  A
C2272      H2275   1.084       .  S
C2273      C2276   1.410       .  S
C2276      N2278   1.146       .  T
C2277      N2279   1.159       .  T
C2280      C2281   1.407       .  A
C2280      C2285   1.423       .  A
C2281      C2282   1.389       .  A
C2281      H2286   1.084       .  S
C2282      C2283   1.417       .  A
C2282      C2289   1.439       .  S
C2283      C2284   1.423       .  A
C2284      C2285   1.436       .  A
C2284      H2287   1.082       .  S
C2285      C2288   1.436       .  S
C2288      N2290   1.156       .  T
C2289      N2291   1.157       .  T
C2292      C2293   1.420       .  A
C2292      C2297   1.394       .  A
C2293      C2294   1.430       .  A
C2293      H2298   1.078       .  S
C2294      C2295   1.430       .  A
C2294      C2301   1.441       .  S
C2295      C2296   1.415       .  A
C2296      C2297   1.383       .  A
C2296      H2299   1.079       .  S
C2297      C2300   1.445       .  S
C2300      N2302   1.156   1_655  T
C2301      N2303   1.157       .  T
C2304      C2305   1.441       .  A
C2304      C2309   1.437       .  A
C2305      C2306   1.403       .  A
C2305      H2310   1.074   1_554  S
C2306      C2307   1.394       .  A
C2306      C2313   1.439       .  S
C2307      C2308   1.399       .  A
C2308      C2309   1.412       .  A
C2308      H2311   1.087       .  S
C2309      C2312   1.426       .  S
C2312      N2314   1.154   1_565  T
C2313      N2315   1.157       .  T
C2316      C2317   1.406       .  A
C2316      C2321   1.392       .  A
C2317      C2318   1.415       .  A
C2317      H2322   1.062       .  S
C2318      C2319   1.411       .  A
C2318      C2325   1.435       .  S
C2319      C2320   1.423       .  A
C2320      C2321   1.383       .  A
C2320      H2323   1.080       .  S
C2321      C2324   1.423       .  S
C2324      N2326   1.150       .  T
C2325      N2327   1.156       .  T
C2328      C2329   1.403       .  A
C2328      C2333   1.382       .  A
C2329      C2330   1.428       .  A
C2329      H2334   1.083       .  S
C2330      C2331   1.437       .  A
C2330      C2337   1.437       .  S
C2331      C2332   1.414       .  A
C2332      C2333   1.381       .  A
C2332      H2335   1.071       .  S
C2333      C2336   1.440       .  S
C2336      N2338   1.155       .  T
C2337      N2339   1.158       .  T
C2340      C2341   1.406       .  A
C2340      C2345   1.442       .  A
C2341      C2342   1.412       .  A
C2341      H2346   1.076       .  S
C2342      C2343   1.430       .  A
C2342      C2349   1.436       .  S
C2343      C2531   1.503       .  S
C2343      C2344   1.376       .  A
C2344      C2345   1.380       .  A
C2344      H2347   1.089       .  S
C2345      C2348   1.420       .  S
C2348      N2350   1.149       .  T
C2349      N2351   1.157       .  T
C2352      C2353   1.397       .  A
C2352      C2357   1.406       .  A
C2353      C2354   1.396       .  A
C2353      H2358   1.087       .  S
C2354      C2355   1.445       .  A
C2354      C2361   1.437       .  S
C2355      C2533   1.544       .  S
C2355      C2356   1.399       .  A
C2356      C2357   1.406       .  A
C2356      H2359   1.063       .  S
C2357      C2360   1.435       .  S
C2360      N2362   1.157       .  T
C2361      N2716   1.156       .  T
N2363      C2714   1.156   1_554  T
C2364      C2365   1.417       .  A
C2364      C2369   1.451       .  A
C2365      C2366   1.412       .  A
C2365      H2370   1.081       .  S
C2366      C2367   1.392       .  A
C2366      C2373   1.406       .  S
C2367      C2368   1.373       .  A
C2368      C2369   1.382       .  A
C2368      H2371   1.083       .  S
C2369      C2372   1.444       .  S
C2372      N2374   1.156       .  T
C2373      N2375   1.146       .  T
C2376      C2377   1.409       .  A
C2376      C2381   1.411       .  A
C2377      C2378   1.432       .  A
C2377      H2382   1.072       .  S
C2378      C2379   1.451       .  A
C2378      C2385   1.442       .  S
C2379      C2380   1.390       .  A
C2380      C2381   1.387       .  A
C2380      H2383   1.057       .  S
C2381      C2384   1.433       .  S
C2384      N2386   1.157       .  T
C2385      N2387   1.159   1_565  T
C2388      C2389   1.420       .  A
C2388      C2393   1.406       .  A
C2389      C2390   1.384       .  A
C2389      H2394   1.083       .  S
C2390      C2391   1.423       .  A
C2390      C2397   1.439       .  S
C2391      C2530   1.595       .  S
C2391      C2392   1.431       .  A
C2392      C2393   1.419       .  A
C2392      H2395   1.057       .  S
C2393      C2396   1.439       .  S
C2396      N2398   1.158       .  T
C2397      N2399   1.157       .  T
C2400      C2401   1.413       .  A
C2400      C2405   1.415       .  A
C2401      C2402   1.426       .  A
C2401      H2406   1.081       .  S
C2402      C2403   1.438       .  A
C2402      C2409   1.431       .  S
C2403      C2536   1.537       .  S
C2403      C2404   1.389       .  A
C2404      C2405   1.380       .  A
C2404      H2407   1.063       .  S
C2405      C2408   1.433       .  S
C2408      N2410   1.154       .  T
C2409      N2411   1.154       .  T
C2412      C2413   1.423       .  A
C2412      C2417   1.437       .  A
C2413      C2414   1.406       .  A
C2413      H2418   1.061       .  S
C2414      C2415   1.386       .  A
C2414      C2421   1.442       .  S
C2415      C2416   1.407       .  A
C2416      C2417   1.425       .  A
C2416      H2419   1.064       .  S
C2417      C2420   1.433       .  S
C2420      N2422   1.156       .  T
C2421      N2423   1.158       .  T
C2424      C2425   1.405       .  A
C2424      C2429   1.420       .  A
C2425      C2426   1.426       .  A
C2425      H2430   1.075       .  S
C2426      C2427   1.422       .  A
C2426      C2433   1.427   1_655  S
C2427      C2532   1.613       .  S
C2427      C2428   1.430       .  A
C2428      C2429   1.426       .  A
C2428      H2431   1.080       .  S
C2429      C2432   1.440       .  S
C2432      N2434   1.157       .  T
C2433      N2435   1.156       .  T
C2436      C2437   1.403       .  A
C2436      C2441   1.439       .  A
C2437      C2438   1.410       .  A
C2437      H2442   1.082       .  S
C2438      C2439   1.402       .  A
C2438      C2445   1.390       .  S
C2439      C2535   1.522       .  S
C2439      C2440   1.385       .  A
C2440      C2441   1.389       .  A
C2440      H2443   1.084       .  S
C2441      C2444   1.426       .  S
C2444      N2446   1.149       .  T
C2445      N2447   1.139       .  T
C2448      C2449   1.371       .  A
C2448      C2453   1.422       .  A
C2449      C2450   1.388       .  A
C2449      H2454   1.059       .  S
C2450      C2451   1.449       .  A
C2450      C2457   1.431       .  S
C2451      C2452   1.416       .  A
C2452      C2453   1.420       .  A
C2452      H2455   1.067       .  S
C2453      C2456   1.438       .  S
C2456      N2458   1.156       .  T
C2457      N2459   1.155   1_655  T
C2460      C2461   1.397       .  A
C2460      C2465   1.417       .  A
C2461      C2462   1.395       .  A
C2461      H2466   1.086       .  S
C2462      C2463   1.444       .  A
C2462      C2469   1.435   1_565  S
C2463      C2464   1.424       .  A
C2464      C2465   1.426       .  A
C2464      H2467   1.081       .  S
C2465      C2468   1.444       .  S
C2468      N2470   1.158       .  T
C2469      N2471   1.155       .  T
N2472      N2473   1.332       .  A
N2472      N2478   1.325       .  A
N2472     Mn2501   2.297       .  S
N2473      C2480   1.365       .  A
N2474      N2476   1.324       .  A
N2474      N2475   1.330       .  A
N2474     Mn2490   2.254       .  S
N2475      C2481   1.359       .  A
N2476      N2477   1.327       .  A
N2476     Mn2501   2.260       .  S
N2477      C2481   1.361       .  A
N2478      N2479   1.335       .  A
N2478     Mn2490   2.283       .  S
N2479      C2480   1.365       .  A
C2480      C2527   1.586       .  S
C2481      C2520   1.559       .  S
N2482      N2488   1.319       .  A
N2482      N2483   1.329       .  A
N2482     Mn2512   2.229       .  S
N2483      C2491   1.356       .  A
N2484      N2485   1.330       .  A
N2484      N2486   1.317       .  A
N2484     Mn2490   2.270       .  S
N2485      C2492   1.363       .  A
N2486      N2487   1.330       .  A
N2486     Mn2512   2.250       .  S
N2487      C2492   1.364       .  A
N2488      N2489   1.340       .  A
N2488     Mn2490   2.323       .  S
N2489      C2491   1.376       .  A
Mn2490    Cl2514   2.602       .  S
C2491      C2518   1.585       .  S
C2492      C2534   1.573       .  S
N2493      N2494   1.340       .  A
N2493      N2499   1.325       .  A
N2493     Mn2501   2.292       .  S
N2494      C2502   1.367       .  A
N2495      N2497   1.325       .  A
N2495      N2496   1.331       .  A
N2495     Mn2513   2.270       .  S
N2496      C2503   1.363       .  A
N2497      N2498   1.333       .  A
N2497     Mn2501   2.282       .  S
N2498      C2503   1.365       .  A
N2499      N2500   1.329       .  A
N2499     Mn2513   2.284       .  S
N2500      C2502   1.363       .  A
Mn2501    Cl2514   2.593       .  S
C2502      C2519   1.581       .  S
C2503      C2524   1.573       .  S
N2504      N2505   1.329       .  A
N2504      N2510   1.322       .  A
N2504     Mn2512   2.228       .  S
N2505      C2515   1.355       .  A
N2506      N2507   1.338       .  A
N2506      N2508   1.321       .  A
N2506     Mn2513   2.280       .  S
N2507      C2516   1.368       .  A
N2508      N2509   1.318       .  A
N2508     Mn2512   2.230       .  S
N2509      C2516   1.355       .  A
N2510      N2511   1.332       .  A
N2510     Mn2513   2.291       .  S
N2511      C2515   1.368       .  A
Mn2512    Cl2514   2.591       .  S
Mn2513    Cl2514   2.602       .  S
C2515      C2523   1.564       .  S
C2516      C2517   1.554       .  S
C2517      C2789   1.577       .  S
C2517      C2801   1.570       .  S
C2517      C2813   1.590       .  S
C2518      C2753   1.581       .  S
C2518      C2765   1.620       .  S
C2518      C2777   1.594       .  S
C2519      C2717   1.578       .  S
C2519      C2729   1.600       .  S
C2519      C2741   1.577       .  S
C2520      C2681   1.563       .  S
C2520      C2693   1.595       .  S
C2520      C2705   1.549       .  S
C2521      C2768   1.529       .  S
C2522      C2684   1.540       .  S
C2523      C2648   1.602       .  S
C2523      C2660   1.563       .  S
C2523      C2672   1.590       .  S
C2524      C2609   1.571       .  S
C2524      C2624   1.584       .  S
C2524      C2633   1.592       .  S
C2525      C2804   1.565       .  S
C2526      C2645   1.498       .  S
C2527      C2576   1.603       .  S
C2527      C2585   1.603       .  S
C2527      C2597   1.599       .  S
C2528      C2561   1.542       .  S
C2529      C2600   1.568       .  S
C2530      C2621   1.543       .  S
C2531      C2588   1.578       .  S
C2532      C2549   1.575       .  S
C2533      C2573   1.521       .  S
C2534      C2540   1.588       .  S
C2534      C2552   1.592       .  S
C2534      C2564   1.590       .  S
C2535      C2657   1.572       .  S
C2536      C2537   1.493       .  S
C2537      C2538   1.412       .  A
C2537      C2542   1.396       .  A
C2538      C2539   1.422       .  A
C2538      H2543   1.078       .  S
C2539      C2540   1.427       .  A
C2539      C2546   1.436       .  S
C2540      C2541   1.426       .  A
C2541      C2542   1.379       .  A
C2541      H2544   1.074       .  S
C2542      C2545   1.438       .  S
C2545      N2547   1.156       .  T
C2546      N2548   1.156       .  T
C2549      C2550   1.413       .  A
C2549      C2554   1.448       .  A
C2550      C2551   1.387       .  A
C2550      H2555   1.068       .  S
C2551      C2552   1.400       .  A
C2551      C2558   1.442       .  S
C2552      C2553   1.402       .  A
C2553      C2554   1.432       .  A
C2553      H2556   1.086       .  S
C2554      C2557   1.425       .  S
C2557      N2559   1.157   1_655  T
C2558      N2560   1.156       .  T
C2561      C2562   1.414       .  A
C2561      C2566   1.395       .  A
C2562      C2563   1.415       .  A
C2562      H2567   1.076       .  S
C2563      C2564   1.431       .  A
C2563      C2570   1.442       .  S
C2564      C2565   1.416       .  A
C2565      C2566   1.392       .  A
C2565      H2568   1.060       .  S
C2566      C2569   1.412       .  S
C2569      N2571   1.143   1_655  T
C2570      N2572   1.158       .  T
C2573      C2574   1.408       .  A
C2573      C2578   1.402       .  A
C2574      C2575   1.419       .  A
C2574      H2579   1.082       .  S
C2575      C2576   1.430       .  A
C2575      C2582   1.439       .  S
C2576      C2577   1.422       .  A
C2577      C2578   1.410       .  A
C2577      H2580   1.084       .  S
C2578      C2581   1.441       .  S
C2581      N2583   1.155       .  T
C2582      N2584   1.157       .  T
C2585      C2586   1.413       .  A
C2585      C2590   1.400       .  A
C2586      C2587   1.431       .  A
C2586      H2591   1.083       .  S
C2587      C2588   1.423       .  A
C2587      C2594   1.421       .  S
C2588      C2589   1.432       .  A
C2589      C2590   1.398       .  A
C2589      H2592   1.077       .  S
C2590      C2593   1.438       .  S
C2593      N2595   1.157       .  T
C2594      N2596   1.150       .  T
C2597      C2598   1.412       .  A
C2597      C2602   1.428       .  A
C2598      C2599   1.404       .  A
C2598      H2603   1.058       .  S
C2599      C2600   1.416       .  A
C2599      C2606   1.435       .  S
C2600      C2601   1.404       .  A
C2601      C2602   1.422       .  A
C2601      H2604   1.056       .  S
C2602      C2605   1.441       .  S
C2605      N2607   1.157       .  T
C2609      C2610   1.403       .  A
C2609      C2614   1.402       .  A
C2610      C2611   1.412       .  A
C2610      H2615   1.086       .  S
C2611      C2612   1.449       .  A
C2611      C2618   1.438       .  S
C2612      C2613   1.425       .  A
C2613      C2614   1.397       .  A
C2613      H2616   1.060       .  S
C2614      C2617   1.440       .  S
C2617      N2619   1.157       .  T
C2621      C2622   1.407       .  A
C2621      C2626   1.431       .  A
C2622      C2623   1.412       .  A
C2622      H2627   1.079       .  S
C2623      C2624   1.413       .  A
C2623      C2630   1.444       .  S
C2624      C2625   1.396       .  A
C2625      C2626   1.416       .  A
C2625      H2628   1.084       .  S
C2626      C2629   1.410       .  S
C2629      N2631   1.146       .  T
C2630      N2632   1.159       .  T
C2633      C2634   1.407       .  A
C2633      C2638   1.423       .  A
C2634      C2635   1.389       .  A
C2634      H2639   1.084       .  S
C2635      C2636   1.417       .  A
C2635      C2642   1.439       .  S
C2636      C2637   1.423       .  A
C2637      C2638   1.436       .  A
C2637      H2640   1.082       .  S
C2638      C2641   1.436       .  S
C2641      N2643   1.156       .  T
C2642      N2644   1.157       .  T
C2645      C2646   1.420       .  A
C2645      C2650   1.394       .  A
C2646      C2647   1.430       .  A
C2646      H2651   1.078       .  S
C2647      C2648   1.430       .  A
C2647      C2654   1.441       .  S
C2648      C2649   1.415       .  A
C2649      C2650   1.383       .  A
C2649      H2652   1.079       .  S
C2650      C2653   1.445       .  S
C2653      N2655   1.156   1_655  T
C2654      N2656   1.157       .  T
C2657      C2658   1.441       .  A
C2657      C2662   1.437       .  A
C2658      C2659   1.403       .  A
C2658      H2663   1.074       .  S
C2659      C2660   1.394       .  A
C2659      C2666   1.439       .  S
C2660      C2661   1.399       .  A
C2661      C2662   1.412       .  A
C2661      H2664   1.087       .  S
C2662      C2665   1.426       .  S
C2665      N2667   1.154   1_565  T
C2666      N2668   1.157       .  T
C2669      C2670   1.406       .  A
C2669      C2674   1.392       .  A
C2670      C2671   1.415       .  A
C2670      H2675   1.062       .  S
C2671      C2672   1.411       .  A
C2671      C2678   1.435       .  S
C2672      C2673   1.423       .  A
C2673      C2674   1.383       .  A
C2673      H2676   1.080       .  S
C2674      C2677   1.423       .  S
C2677      N2679   1.150       .  T
C2678      N2680   1.156       .  T
C2681      C2682   1.403       .  A
C2681      C2686   1.382       .  A
C2682      C2683   1.428       .  A
C2682      H2687   1.083       .  S
C2683      C2684   1.437       .  A
C2683      C2690   1.437       .  S
C2684      C2685   1.414       .  A
C2685      C2686   1.381       .  A
C2685      H2688   1.071       .  S
C2686      C2689   1.440       .  S
C2689      N2691   1.155       .  T
C2690      N2692   1.158       .  T
C2693      C2694   1.406       .  A
C2693      C2698   1.442       .  A
C2694      C2695   1.412       .  A
C2694      H2699   1.076       .  S
C2695      C2696   1.430       .  A
C2695      C2702   1.436       .  S
C2696      C2697   1.376       .  A
C2697      C2698   1.380       .  A
C2697      H2700   1.089       .  S
C2698      C2701   1.420       .  S
C2701      N2703   1.149       .  T
C2702      N2704   1.157       .  T
C2705      C2706   1.397       .  A
C2705      C2710   1.406       .  A
C2706      C2707   1.396       .  A
C2706      H2711   1.087       .  S
C2707      C2708   1.445       .  A
C2707      C2714   1.437       .  S
C2708      C2709   1.399       .  A
C2709      C2710   1.406       .  A
C2709      H2712   1.063       .  S
C2710      C2713   1.435       .  S
C2713      N2715   1.157       .  T
C2717      C2718   1.417       .  A
C2717      C2722   1.451       .  A
C2718      C2719   1.412       .  A
C2718      H2723   1.081       .  S
C2719      C2720   1.392       .  A
C2719      C2726   1.406       .  S
C2720      C2721   1.373       .  A
C2721      C2722   1.382       .  A
C2721      H2724   1.083       .  S
C2722      C2725   1.444       .  S
C2725      N2727   1.156       .  T
C2726      N2728   1.146       .  T
C2729      C2730   1.409       .  A
C2729      C2734   1.411       .  A
C2730      C2731   1.432       .  A
C2730      H2735   1.072       .  S
C2731      C2732   1.451       .  A
C2731      C2738   1.442       .  S
C2732      C2733   1.390       .  A
C2733      C2734   1.387       .  A
C2733      H2736   1.057       .  S
C2734      C2737   1.433       .  S
C2737      N2739   1.157       .  T
C2738      N2740   1.159   1_565  T
C2741      C2742   1.420       .  A
C2741      C2746   1.406       .  A
C2742      C2743   1.384       .  A
C2742      H2747   1.083       .  S
C2743      C2744   1.423       .  A
C2743      C2750   1.439       .  S
C2744      C2745   1.431       .  A
C2745      C2746   1.419       .  A
C2745      H2748   1.057       .  S
C2746      C2749   1.439       .  S
C2749      N2751   1.158       .  T
C2750      N2752   1.157       .  T
C2753      C2754   1.413       .  A
C2753      C2758   1.415       .  A
C2754      C2755   1.426       .  A
C2754      H2759   1.081       .  S
C2755      C2756   1.438       .  A
C2755      C2762   1.431       .  S
C2756      C2757   1.389       .  A
C2757      C2758   1.380       .  A
C2757      H2760   1.063       .  S
C2758      C2761   1.433       .  S
C2761      N2763   1.154       .  T
C2762      N2764   1.154   1_556  T
C2765      C2766   1.423       .  A
C2765      C2770   1.437       .  A
C2766      C2767   1.406       .  A
C2766      H2771   1.061       .  S
C2767      C2768   1.386       .  A
C2767      C2774   1.442       .  S
C2768      C2769   1.407       .  A
C2769      C2770   1.425       .  A
C2769      H2772   1.064       .  S
C2770      C2773   1.433       .  S
C2773      N2775   1.156       .  T
C2774      N2776   1.158       .  T
C2777      C2778   1.405       .  A
C2777      C2782   1.420       .  A
C2778      C2779   1.426       .  A
C2778      H2783   1.075       .  S
C2779      C2780   1.422       .  A
C2779      C2786   1.427   1_655  S
C2780      C2781   1.430       .  A
C2781      C2782   1.426       .  A
C2781      H2784   1.080   1_556  S
C2782      C2785   1.440       .  S
C2785      N2787   1.157       .  T
C2786      N2788   1.156       .  T
C2789      C2790   1.403       .  A
C2789      C2794   1.439       .  A
C2790      C2791   1.410       .  A
C2790      H2795   1.082       .  S
C2791      C2792   1.402       .  A
C2791      C2798   1.390       .  S
C2792      C2793   1.385       .  A
C2793      C2794   1.389       .  A
C2793      H2796   1.084       .  S
C2794      C2797   1.426       .  S
C2797      N2799   1.149       .  T
C2798      N2800   1.139       .  T
C2801      C2802   1.371       .  A
C2801      C2806   1.422       .  A
C2802      C2803   1.388       .  A
C2802      H2807   1.059       .  S
C2803      C2804   1.449       .  A
C2803      C2810   1.431       .  S
C2804      C2805   1.416       .  A
C2805      C2806   1.420       .  A
C2805      H2808   1.067       .  S
C2806      C2809   1.438       .  S
C2809      N2811   1.156       .  T
C2810      N2812   1.155   1_655  T
C2813      C2814   1.397       .  A
C2813      C2818   1.417       .  A
C2814      C2815   1.395       .  A
C2814      H2819   1.086       .  S
C2815      C2816   1.444       .  A
C2815      C2822   1.435   1_565  S
C2816      C2817   1.424       .  A
C2817      C2818   1.426       .  A
C2817      H2820   1.081       .  S
C2818      C2821   1.444       .  S
C2821      N2823   1.158       .  T
C2822      N2824   1.155       .  T
