geometry optimzed in LAMMPS
_audit_creation_date              2020-11-30 
_audit_creation_method            'lammps2cif' 
_symmetry_space_group_name_H-M    'P1' 
_symmetry_Int_Tables_number       1 
_symmetry_cell_setting            triclinic 
loop_ 
_symmetry_equiv_pos_as_xyz 
  x,y,z 
_cell_length_a                    41.90030938173119 
_cell_length_b                    41.88717133872912 
_cell_length_c                    41.88050310055522 
_cell_angle_alpha                 89.31479352615432 
_cell_angle_beta                  88.2221508909744 
_cell_angle_gamma                 89.99678393473414 
loop_ 
_atom_site_label 
_atom_site_type_symbol 
_atom_site_fract_x 
_atom_site_fract_y 
_atom_site_fract_z 
_atom_site_charge 
C1          C  0.36618736  0.36457543  0.99705058     0.05850
C2          C  0.37458026  0.33212762  0.99741272    -0.10300
C3          C  0.35723204  0.30612246  0.49928564     0.03350
C4          C  0.32478155  0.31066540  0.49372921    -0.08820
C5          C  0.31169047  0.34116582  0.49118790     0.05850
C6          C  0.33395918  0.37375733  0.99674612    -0.08240
H7          H  0.39951984  0.32521107  0.99727634     0.11440
H8          H  0.30942885  0.29005219  0.49121870     0.08970
H9          H  0.32764708  0.39884675  0.99612382     0.08820
C10         C  0.36289789  0.16541469  0.99698432     0.05850
C11         C  0.36712824  0.19826798  0.00278962    -0.10300
C12         C  0.34740594  0.21970489  0.50958083     0.03350
C13         C  0.31683102  0.21271848  0.49928689    -0.08820
C14         C  0.30915372  0.18213564  0.48904817     0.05850
C15         C  0.33209920  0.15294902  0.99343070    -0.08240
H16         H  0.39083497  0.20785020  0.00592462     0.11440
H17         H  0.29877321  0.23127500  0.49931228     0.08970
H18         H  0.32878641  0.12769729  0.98920783     0.08820
C19         C  0.16443407  0.16451310  0.99894980     0.05850
C20         C  0.19605933  0.15453173  0.00298717    -0.10300
C21         C  0.22225365  0.17248977  0.49925465     0.03350
C22         C  0.21751115  0.20494277  0.50542839    -0.08880
C23         C  0.18692836  0.21790710  0.50840436     0.05850
C24         C  0.15584174  0.19664500  0.00315963    -0.08240
H25         H  0.20260339  0.12969067  0.99992876     0.11440
H26         H  0.23801360  0.22041229  0.50803826     0.08970
H27         H  0.13136263  0.20424898  0.00026783     0.08820
C28         C  0.16669656  0.36331001  0.99549362     0.05850
C29         C  0.19935369  0.36812842  0.00141079    -0.10300
C30         C  0.22103648  0.34948056  0.50041759     0.03350
C31         C  0.21185569  0.31712000  0.49995970    -0.08820
C32         C  0.17947851  0.30821870  0.49871817     0.05850
C33         C  0.15459319  0.33213682  0.99300183    -0.08240
H34         H  0.20868261  0.39207955  0.00374154     0.11440
H35         H  0.23003836  0.29875511  0.50046076     0.08970
H36         H  0.12951335  0.32835665  0.98862762     0.08820
C37         C  0.36361479  0.01934016  0.35330771     0.05850
C38         C  0.33198680  0.02298634  0.36475701    -0.10300
C39         C  0.30682255  0.01846157  0.34418335     0.03350
C40         C  0.31346127  0.01122503  0.31212292    -0.08820
C41         C  0.34482224  0.00811915  0.30041343     0.05850
C42         C  0.37016071  0.01233511  0.32099808    -0.08240
H43         H  0.32697026  0.02795990  0.38975932     0.11440
H44         H  0.29393108  0.00771547  0.29610983     0.08970
H45         H  0.39454334  0.00893740  0.31230737     0.08820
C46         C  0.16576227  0.01198257  0.34740236     0.05850
C47         C  0.19647052  0.00826194  0.35932018    -0.10300
C48         C  0.22181416  0.00000136  0.33868157     0.03350
C49         C  0.21656494  0.99579953  0.30626755    -0.08820
C50         C  0.18646081  0.00095564  0.29364190     0.05850
C51         C  0.16072572  0.00907981  0.31439169    -0.08240
H52         H  0.20041660  0.01062800  0.38465662     0.11440
H53         H  0.23647739  0.98924114  0.29050536     0.08970
H54         H  0.13698878  0.01198048  0.30523682     0.08820
C55         C  0.16281634  0.02003913  0.14857650     0.05850
C56         C  0.19544428  0.02041064  0.13953518    -0.10300
C57         C  0.21868002  0.01901567  0.16288018     0.03350
C58         C  0.20883856  0.01839487  0.19524988    -0.08820
C59         C  0.17637533  0.01766456  0.20466853     0.05850
C60         C  0.15333065  0.01901288  0.18111753    -0.08240
H61         H  0.20269343  0.02104943  0.11446540     0.11440
H62         H  0.22670008  0.01900148  0.21341232     0.08970
H63         H  0.12819010  0.01852796  0.18803241     0.08820
C64         C  0.36198243  0.01604086  0.15364931     0.05850
C65         C  0.37263354  0.01861038  0.18499131    -0.10300
C66         C  0.35114317  0.01472831  0.21095952     0.03350
C67         C  0.31880538  0.00921901  0.20523594    -0.08820
C68         C  0.30768930  0.00749750  0.17417554     0.05850
C69         C  0.32937251  0.01099762  0.14812353    -0.08240
H70         H  0.39770139  0.02272897  0.18917101     0.11440
H71         H  0.30181242  0.00701346  0.22520858     0.08970
H72         H  0.32116876  0.00885939  0.12394960     0.08820
C73         C  0.01235657  0.16356432  0.34660397     0.05850
C74         C  0.01058276  0.19594066  0.35452635    -0.10300
C75         C  0.01086686  0.21912644  0.33028268     0.03350
C76         C  0.01335124  0.20988284  0.29829932    -0.08820
C77         C  0.01537703  0.17745899  0.29011874     0.05850
C78         C  0.01427958  0.15427650  0.31449265    -0.08240
H79         H  0.00811481  0.20299612  0.37932339     0.11440
H80         H  0.01243867  0.22804393  0.27968878     0.08970
H81         H  0.01519695  0.12918563  0.30852198     0.08820
C82         C  0.01794635  0.36375399  0.34877344     0.05850
C83         C  0.02550770  0.33198578  0.35674914    -0.10300
C84         C  0.02184891  0.30788559  0.33424055     0.03350
C85         C  0.01152224  0.31585449  0.30371299    -0.08820
C86         C  0.00469380  0.34741346  0.29542508     0.05850
C87         C  0.00787455  0.37154755  0.31794123    -0.08240
H88         H  0.03302025  0.32590858  0.38059278     0.11440
H89         H  0.00876411  0.29724929  0.28618045     0.08970
H90         H  0.00183169  0.39596486  0.31177930     0.08820
C91         C  0.01766573  0.16666249  0.14759748     0.05850
C92         C  0.02370347  0.16136653  0.18020238    -0.10300
C93         C  0.02691781  0.18754078  0.20056345     0.03350
C94         C  0.02327653  0.21839796  0.18843067    -0.08820
C95         C  0.01561504  0.22396098  0.15655954     0.05850
C96         C  0.01368453  0.19803545  0.13584711    -0.08240
H97         H  0.02673805  0.13730567  0.18937844     0.11440
H98         H  0.02600799  0.23849755  0.20425240     0.08970
H99         H  0.00869856  0.20219497  0.11090363     0.08820
C100        C  0.01333805  0.36383718  0.14943829     0.05850
C101        C  0.01568415  0.37445039  0.18089195    -0.10300
C102        C  0.00886223  0.35361685  0.20647132     0.03350
C103        C  0.00050495  0.32189304  0.20021699    -0.08820
C104        C  0.99937870  0.31074668  0.16886579     0.05850
C105        C  0.00577770  0.33188299  0.14328371    -0.08240
H106        H  0.02210825  0.39902123  0.18544852     0.11440
H107        H  0.99641648  0.30523397  0.21992744     0.08970
H108        H  0.00430331  0.32374257  0.11890084     0.08820
O109        O  0.46466907  0.42367747  0.99825257    -0.77410
O110        O  0.46312258  0.10774486  0.99883748    -0.78960
O111        O  0.42181311  0.01622125  0.05330885    -0.75980
O112        O  0.42260684  0.01678344  0.44870073    -0.74360
O113        O  0.46203691  0.01658519  0.40957526    -0.76160
O114        O  0.45981005  0.01600320  0.09155645    -0.77090
O115        O  0.42410453  0.06937656  0.99944541    -0.78410
O116        O  0.42566253  0.46214610  0.99965405    -0.78700
Eu117      Eu  0.44955342  0.01611389  0.00101128     2.39200
O118        O  0.48062857  0.04732489  0.46792710    -0.86210
O119        O  0.48406327  0.48119571  0.03123750    -0.89820
C120        C  0.43528254  0.43292034  0.99881803     1.04870
C121        C  0.43377359  0.09868003  0.99866678     1.04690
C122        C  0.43062360  0.01624713  0.08249329     1.04640
C123        C  0.43262538  0.01739993  0.41928506     1.02490
H124        H  0.46789504  0.06185255  0.04622376     0.32240
O125        O  0.48136323  0.04838656  0.03295248    -0.98600
H126        H  0.47025321  0.47006148  0.45265400     0.32280
O127        O  0.48309448  0.48332746  0.46592688    -1.01140
O128        O  0.06658833  0.10592147  0.99698851    -0.78370
O129        O  0.07062919  0.42474419  0.99609142    -0.77910
O130        O  0.01412062  0.06546893  0.09151615    -0.76340
O131        O  0.01277883  0.06691498  0.40814278    -0.79680
O132        O  0.01703204  0.46191453  0.40710736    -0.77540
O133        O  0.01697932  0.46050334  0.08920299    -0.76190
O134        O  0.10517106  0.01660119  0.05065874    -0.77710
O135        O  0.10418019  0.01667964  0.44495446    -0.79630
O136        O  0.06594980  0.01526794  0.09010070    -0.76370
O137        O  0.06577447  0.01590001  0.40717065    -0.79050
O138        O  0.01492717  0.10458337  0.05271386    -0.74780
O139        O  0.01770786  0.42258073  0.05015430    -0.74810
O140        O  0.01635644  0.42319917  0.44623657    -0.74460
O141        O  0.01225423  0.10577238  0.44623841    -0.77950
O142        O  0.10557387  0.06750072  0.99638087    -0.77380
O143        O  0.10879214  0.46394780  0.99534563    -0.75710
Eu144      Eu  0.01452652  0.07929727  0.99970101     2.39770
Eu145      Eu  0.01734461  0.45017384  0.99850487     2.39570
Eu146      Eu  0.01382137  0.01337092  0.06472886     2.38400
Eu147      Eu  0.01374037  0.01488766  0.43512349     2.39880
Eu148      Eu  0.07981435  0.01500716  0.99831948     2.39790
O149        O  0.04773764  0.48235944  0.46534168    -0.90120
O150        O  0.04647620  0.04642220  0.03151157    -0.89010
C151        C  0.09591420  0.09668714  0.99588816     1.05050
C152        C  0.09990353  0.43449063  0.99516805     1.03770
C153        C  0.01470381  0.09493803  0.08213610     1.03160
C154        C  0.01226872  0.09619256  0.41711222     1.05170
C155        C  0.01720842  0.43259136  0.41680392     1.04090
C156        C  0.01758791  0.43141911  0.07946850     1.02930
C157        C  0.09538934  0.01656613  0.08019944     1.02990
C158        C  0.09496253  0.01659838  0.41579984     1.05610
H159        H  0.06262062  0.46894531  0.04320941     0.32980
O160        O  0.04908018  0.48229491  0.03043881    -1.02280
H161        H  0.05891859  0.06155371  0.45250187     0.35030
O162        O  0.04561502  0.04804490  0.46617338    -1.04850
C163        C  0.01795251  0.40677326  0.10323799    -0.10550
C164        C  0.01693111  0.38644728  0.12369985    -0.12110
C165        C  0.99249411  0.27651269  0.16473604    -0.13710
C166        C  0.01058756  0.25741903  0.14596617    -0.28880
H167        H  0.48215164  0.26842792  0.19139113     0.15310
H168        H  0.02624503  0.26733003  0.12722906     0.15890
C169        C  0.01524545  0.11908589  0.10638849    -0.10550
C170        C  0.01609924  0.14016693  0.12585685    -0.12110
C171        C  0.99304629  0.35344374  0.26324216    -0.13710
C172        C  0.01303131  0.36384667  0.23976957    -0.28880
H173        H  0.97144035  0.34087476  0.25706242     0.15310
H174        H  0.03503361  0.37597003  0.24550432     0.15890
C175        C  0.01878462  0.38806813  0.37270898    -0.10550
C176        C  0.01833746  0.40840070  0.39284518    -0.12110
C177        C  0.01633653  0.16820095  0.25600009    -0.13710
C178        C  0.03439934  0.18486355  0.23469880    -0.28880
H179        H  0.99967089  0.15031618  0.24806744     0.15310
H180        H  0.05061509  0.20275119  0.24359899     0.15890
C181        C  0.00411884  0.25276975  0.33711920    -0.13710
C182        C  0.02742591  0.27393276  0.34203402    -0.28880
H183        H  0.98060715  0.26142306  0.33102653     0.15310
H184        H  0.05142360  0.26600825  0.34730453     0.15890
C185        C  0.01184345  0.12005557  0.39252862    -0.10550
C186        C  0.01183949  0.13984194  0.37152820    -0.12110
C187        C  0.40579001  0.01676525  0.10684815    -0.10550
C188        C  0.38510940  0.01695300  0.12751688    -0.12110
C189        C  0.25340470  0.01889953  0.15418959    -0.13710
C190        C  0.27335908  0.00057882  0.17104191    -0.28880
H191        H  0.26270853  0.03602940  0.13659345     0.15310
H192        H  0.26352156  0.49164491  0.13711718     0.15890
C193        C  0.13906487  0.01943428  0.12437389    -0.10550
C194        C  0.11922731  0.01818962  0.10410849    -0.12110
C195        C  0.18405884  0.99681611  0.25872270    -0.13710
C196        C  0.16733031  0.01589980  0.23931838    -0.28880
H197        H  0.20127659  0.98054090  0.24773167     0.15310
H198        H  0.14954949  0.03228823  0.24899583     0.15890
C199        C  0.13948713  0.01612616  0.36987073    -0.10550
C200        C  0.11905844  0.01713320  0.39073345    -0.12110
C201        C  0.34926535  0.99806435  0.26707552    -0.13710
C202        C  0.36161497  0.01760836  0.24428501    -0.28880
H203        H  0.33487365  0.97788935  0.25998922     0.15310
H204        H  0.37579001  0.03816856  0.25062725     0.15890
C205        C  0.27318501  0.01988606  0.35541546    -0.13710
C206        C  0.25430697  0.99489227  0.34970044    -0.28880
H207        H  0.26291028  0.04313298  0.36065224     0.15310
H208        H  0.27036997  0.47477193  0.33940116     0.15890
C209        C  0.38896673  0.02005798  0.37550477    -0.10550
C210        C  0.40912147  0.01914041  0.39531699    -0.12110
C211        C  0.14478258  0.38989901  0.99408504    -0.10550
C212        C  0.12465123  0.41059497  0.99414544    -0.12110
C213        C  0.18511362  0.25226904  0.51594275    -0.13710
C214        C  0.17029770  0.27391163  0.49772033    -0.28880
H215        H  0.18183874  0.26177512  0.04097800     0.15310
H216        H  0.15335299  0.26624801  0.48024467     0.15890
C217        C  0.14016062  0.14110921  0.99446476    -0.10550
C218        C  0.11983325  0.12092371  0.99410776    -0.12110
C219        C  0.25531822  0.16040849  0.49627568    -0.13710
C220        C  0.27663058  0.17696756  0.47817514    -0.28880
H221        H  0.26131692  0.17659641  0.04128622     0.15310
H222        H  0.26774494  0.19491809  0.46169546     0.15890
C223        C  0.40998036  0.12334694  0.99750358    -0.10550
C224        C  0.38952877  0.14362183  0.99677535    -0.12110
C225        C  0.27736849  0.34263966  0.48392641    -0.13710
C226        C  0.25539503  0.35839620  0.50164671    -0.28880
H227        H  0.26910347  0.32510642  0.46710020     0.15310
H228        H  0.26159873  0.32593112  0.03107813     0.15890
C229        C  0.35330476  0.25221379  0.52058228    -0.13710
C230        C  0.36941604  0.27315662  0.50176019    -0.28880
H231        H  0.32263119  0.26113290  0.02997626     0.15310
H232        H  0.38606184  0.26485365  0.48325930     0.15890
C233        C  0.41120721  0.40867503  0.99814285    -0.10550
C234        C  0.39073392  0.38853280  0.99742725    -0.12110
C235        C  0.36473190  0.36356464  0.49825418     0.05850
C236        C  0.37734677  0.33259866  0.50078619    -0.10300
C237        C  0.35081858  0.30860530  0.99838608     0.03350
C238        C  0.31855434  0.31808377  0.99829461    -0.08820
C239        C  0.30987077  0.35056666  0.99774716     0.05850
C240        C  0.33168168  0.36799265  0.49388361    -0.08240
H241        H  0.40267635  0.32912270  0.50410919     0.11440
H242        H  0.30007271  0.30007084  0.99730766     0.08970
H243        H  0.32193202  0.39182189  0.49151028     0.08820
C244        C  0.36308385  0.16510203  0.49937122     0.05850
C245        C  0.37084235  0.19597884  0.50922368    -0.10300
C246        C  0.34024566  0.21827206  0.00593989     0.03350
C247        C  0.30983365  0.20527996  0.00301744    -0.08820
C248        C  0.30549524  0.17282585  0.99693854     0.05850
C249        C  0.33219006  0.15801175  0.48950163    -0.08240
H250        H  0.39468091  0.20135689  0.51697797     0.11440
H251        H  0.28911283  0.22070019  0.00547557     0.08970
H252        H  0.32629180  0.13417161  0.48179881     0.08820
C253        C  0.16479829  0.16482946  0.50068647     0.05850
C254        C  0.19583779  0.15227555  0.49767415    -0.10300
C255        C  0.21872677  0.17646285  0.01293505     0.03350
C256        C  0.20976361  0.20808188  0.01844368    -0.08880
C257        C  0.17867347  0.21846133  0.01310446     0.05850
C258        C  0.16022826  0.19784569  0.50561089    -0.08240
H259        H  0.19941155  0.12695229  0.49389001     0.11440
H260        H  0.22736194  0.22496016  0.02648834     0.08970
H261        H  0.13633939  0.20755101  0.50827482     0.08820
C262        C  0.16506684  0.36442495  0.49844323     0.05850
C263        C  0.19731957  0.37303578  0.50048030    -0.10300
C264        C  0.21947465  0.34160488  0.00567798     0.03350
C265        C  0.20684120  0.31091485  0.00375046    -0.08820
C266        C  0.17458079  0.30585366  0.99768363     0.05850
C267        C  0.15622845  0.33214864  0.49716789    -0.08240
H268        H  0.20398396  0.39800605  0.50137468     0.11440
H269        H  0.22248792  0.29053705  0.00685582     0.08970
H270        H  0.13127464  0.32566500  0.49559029     0.08820
C271        C  0.36541588  0.01889941  0.85314466     0.05850
C272        C  0.33362899  0.02291313  0.86405815    -0.10300
C273        C  0.30871424  0.01791513  0.84324212     0.03350
C274        C  0.31580514  0.00997985  0.81143409    -0.08820
C275        C  0.34727370  0.00652382  0.80025093     0.05850
C276        C  0.37234397  0.01109489  0.82108664    -0.08240
H277        H  0.32829295  0.02855630  0.88884998     0.11440
H278        H  0.29653112  0.00630954  0.79514445     0.08970
H279        H  0.39681975  0.00751067  0.81276709     0.08820
C280        C  0.16698395  0.01401950  0.84683221     0.05850
C281        C  0.19803863  0.01028761  0.85789730    -0.10300
C282        C  0.22277481  0.00183697  0.83658741     0.03350
C283        C  0.21653438  0.99753049  0.80438298    -0.08820
C284        C  0.18600283  0.00255307  0.79271299     0.05850
C285        C  0.16094609  0.01090210  0.81409028    -0.08240
H286        H  0.20266403  0.01255000  0.88310674     0.11440
H287        H  0.23591870  0.99071301  0.78807538     0.08970
H288        H  0.13690199  0.01361282  0.80564505     0.08820
C289        C  0.16149718  0.01929237  0.64806561     0.05850
C290        C  0.19421510  0.01851805  0.63914084    -0.10300
C291        C  0.21739253  0.01739219  0.66265114     0.03350
C292        C  0.20734986  0.01823406  0.69491160    -0.08820
C293        C  0.17489286  0.01822432  0.70418545     0.05850
C294        C  0.15192967  0.01935654  0.68058334    -0.08240
H295        H  0.20154623  0.01823679  0.61410058     0.11440
H296        H  0.22503889  0.01931944  0.71321064     0.08970
H297        H  0.12677771  0.01957781  0.68746047     0.08820
C298        C  0.36038569  0.01535363  0.65367286     0.05850
C299        C  0.37181914  0.01772856  0.68468818    -0.10300
C300        C  0.35109948  0.01325372  0.71111985     0.03350
C301        C  0.31866601  0.00725584  0.70623532    -0.08820
C302        C  0.30664886  0.00603911  0.67542630     0.05850
C303        C  0.32767471  0.01010278  0.64890112    -0.08240
H304        H  0.39694730  0.02219327  0.68825100     0.11440
H305        H  0.30232373  0.00454908  0.72668277     0.08970
H306        H  0.31890289  0.00829998  0.62491623     0.08820
C307        C  0.01289021  0.16639664  0.84897606     0.05850
C308        C  0.01075708  0.19770639  0.86041142    -0.10300
C309        C  0.01551821  0.22358516  0.83947078     0.03350
C310        C  0.02134471  0.21799132  0.80691069    -0.08820
C311        C  0.02252806  0.18704547  0.79494230     0.05850
C312        C  0.01823379  0.16092294  0.81605643    -0.08240
H313        H  0.00640511  0.20191103  0.88567492     0.11440
H314        H  0.02428503  0.23803341  0.79045042     0.08970
H315        H  0.02007064  0.13677319  0.80719612     0.08820
C316        C  0.01610967  0.36666131  0.84946050     0.05850
C317        C  0.02458700  0.33511983  0.85703738    -0.10300
C318        C  0.02330085  0.31172289  0.83360785     0.03350
C319        C  0.01315743  0.31978626  0.80311563    -0.08820
C320        C  0.00458368  0.35114342  0.79562493     0.05850
C321        C  0.00624998  0.37478904  0.81872536    -0.08240
H322        H  0.03250729  0.32894712  0.88072199     0.11440
H323        H  0.01215699  0.30153812  0.78499248     0.08970
H324        H  0.99962407  0.39914405  0.81294448     0.08820
C325        C  0.01250509  0.16442513  0.64950342     0.05850
C326        C  0.01063549  0.15531405  0.68189769    -0.10300
C327        C  0.01189838  0.17849317  0.70563954     0.03350
C328        C  0.01336822  0.21092687  0.69652105    -0.08820
C329        C  0.01433619  0.22033542  0.66411900     0.05850
C330        C  0.01475973  0.19680541  0.64066096    -0.08240
H331        H  0.00893760  0.13027900  0.68858237     0.11440
H332        H  0.01374299  0.22899164  0.71481487     0.08970
H333        H  0.01608835  0.20368881  0.61561954     0.08820
C334        C  0.01419451  0.36351465  0.65026194     0.05850
C335        C  0.01649613  0.37585805  0.68110765    -0.10300
C336        C  0.01195037  0.35586173  0.70775812     0.03350
C337        C  0.00623948  0.32329938  0.70340222    -0.08820
C338        C  0.00489866  0.31038292  0.67292454     0.05850
C339        C  0.00894265  0.33056897  0.64600113    -0.08240
H340        H  0.02077343  0.40112141  0.68438400     0.11440
H341        H  0.00346823  0.30756691  0.72405713     0.08970
H342        H  0.00697243  0.32101885  0.62221059     0.08820
O343        O  0.46097918  0.42500224  0.49936184    -0.77410
O344        O  0.46035761  0.10591882  0.49933142    -0.78960
O345        O  0.41980931  0.01542246  0.55308964    -0.75980
O346        O  0.42434279  0.01779253  0.94882413    -0.74360
O347        O  0.46377941  0.01731949  0.90968845    -0.76160
O348        O  0.45767682  0.01605131  0.59144151    -0.77090
O349        O  0.42169551  0.06713047  0.50017982    -0.78410
O350        O  0.42249540  0.46387464  0.49928440    -0.78700
Eu351      Eu  0.44765538  0.01482838  0.50097355     2.39200
O352        O  0.48276203  0.04822646  0.96797729    -0.86210
O353        O  0.48094539  0.48261245  0.53136660    -0.89820
C354        C  0.43160714  0.43452685  0.49947944     1.04870
C355        C  0.43113506  0.09638587  0.49962401     1.04690
C356        C  0.42852618  0.01596887  0.58226898     1.04640
C357        C  0.43434296  0.01820250  0.91939780     1.02490
H358        H  0.46594829  0.06106064  0.54588154     0.32240
O359        O  0.47942415  0.04761644  0.53261094    -0.98600
H360        H  0.47120958  0.47005403  0.95346404     0.32280
O361        O  0.48430341  0.48303957  0.96677230    -1.01140
O362        O  0.06417622  0.10734440  0.49868594    -0.78370
O363        O  0.06720844  0.42389519  0.49739442    -0.77910
O364        O  0.01148715  0.06705367  0.59055089    -0.76340
O365        O  0.01392663  0.06693682  0.90807448    -0.79680
O366        O  0.01718943  0.46419806  0.90796250    -0.77540
O367        O  0.01383746  0.46027002  0.58892339    -0.76190
O368        O  0.10316775  0.01688592  0.55065706    -0.77710
O369        O  0.10608396  0.01652073  0.94482081    -0.79630
O370        O  0.06381779  0.01645528  0.58998222    -0.76370
O371        O  0.06758769  0.01675754  0.90709998    -0.79050
O372        O  0.01192895  0.10584642  0.55145013    -0.74780
O373        O  0.01449974  0.42219002  0.55003434    -0.74810
O374        O  0.01812035  0.42479193  0.94637338    -0.74460
O375        O  0.01314190  0.10546216  0.94650335    -0.77950
O376        O  0.10327950  0.06909565  0.49854448    -0.77380
O377        O  0.10587070  0.46269371  0.49678931    -0.75710
Eu378      Eu  0.01245977  0.07987441  0.49910087     2.39770
Eu379      Eu  0.01456131  0.44973870  0.49823014     2.39570
Eu380      Eu  0.01140047  0.01487374  0.56463458     2.38400
Eu381      Eu  0.01552472  0.01488345  0.93496344     2.39880
Eu382      Eu  0.07766037  0.01594074  0.49851190     2.39790
O383        O  0.04936045  0.48337473  0.96520774    -0.90120
O384        O  0.04427143  0.04750896  0.53135763    -0.89010
C385        C  0.09358338  0.09837430  0.49867490     1.05050
C386        C  0.09649830  0.43336419  0.49702048     1.03770
C387        C  0.01174816  0.09636789  0.58086237     1.03160
C388        C  0.01300425  0.09615218  0.91720139     1.05170
C389        C  0.01785030  0.43477691  0.91722281     1.04090
C390        C  0.01435269  0.43103587  0.57936014     1.02930
C391        C  0.09334461  0.01711456  0.58016007     1.02990
C392        C  0.09678635  0.01719430  0.91572190     1.05610
H393        H  0.05981975  0.46888648  0.54306797     0.32980
O394        O  0.04658192  0.48217459  0.52991109    -1.02280
H395        H  0.06044962  0.06102917  0.95274151     0.35030
O396        O  0.04734311  0.04743038  0.96653553    -1.04850
C397        C  0.01499689  0.40613643  0.60320383    -0.10550
C398        C  0.01523531  0.38553126  0.62357400    -0.12110
C399        C  0.99765347  0.27591288  0.67148815    -0.13710
C400        C  0.01564666  0.25479184  0.65513714    -0.28880
H401        H  0.48004137  0.26604166  0.68443108     0.15310
H402        H  0.03299604  0.26290889  0.63701446     0.15890
C403        C  0.01186295  0.12043176  0.60486478    -0.10550
C404        C  0.01210950  0.14048657  0.62522101    -0.12110
C405        C  0.99364400  0.35779347  0.76338911    -0.13710
C406        C  0.01442389  0.36798766  0.74051324    -0.28880
H407        H  0.97236431  0.34505025  0.75651972     0.15310
H408        H  0.03629113  0.38004941  0.74678540     0.15890
C409        C  0.01741093  0.39076679  0.87322376    -0.10550
C410        C  0.01795196  0.41107050  0.89314494    -0.12110
C411        C  0.02990918  0.18417300  0.76037239    -0.13710
C412        C  0.01079931  0.16935085  0.74008677    -0.28880
H413        H  0.04789519  0.20051194  0.75047102     0.15310
H414        H  0.99242502  0.15296351  0.74902542     0.15890
C415        C  0.01307043  0.25680453  0.85068197    -0.13710
C416        C  0.03375760  0.27884136  0.83922094    -0.28880
H417        H  0.99158461  0.26397391  0.86391860     0.15310
H418        H  0.05477108  0.27116699  0.82549564     0.15890
C419        C  0.01187433  0.12016340  0.89251638    -0.10550
C420        C  0.01160768  0.14036521  0.87175422    -0.12110
C421        C  0.40360063  0.01661872  0.60646439    -0.10550
C422        C  0.38294786  0.01667428  0.62712730    -0.12110
C423        C  0.25226131  0.01637417  0.65434021    -0.13710
C424        C  0.27206212  0.99963037  0.67300125    -0.28880
H425        H  0.26176898  0.03173955  0.63527105     0.15310
H426        H  0.26355860  0.48542647  0.69218375     0.15890
C427        C  0.13759907  0.01897855  0.62393008    -0.10550
C428        C  0.11733890  0.01819503  0.60401729    -0.12110
C429        C  0.18220984  0.99755280  0.75815836    -0.13710
C430        C  0.16596325  0.01713087  0.73882598    -0.28880
H431        H  0.19846110  0.98036626  0.74711679     0.15310
H432        H  0.14928026  0.03459439  0.74854414     0.15890
C433        C  0.14121863  0.01785336  0.86984986    -0.10550
C434        C  0.12084313  0.01836868  0.89073131    -0.12110
C435        C  0.35207914  0.99616277  0.76705665    -0.13710
C436        C  0.36249181  0.01646525  0.74404864    -0.28880
H437        H  0.33866034  0.97521492  0.76026451     0.15310
H438        H  0.37540720  0.03793803  0.75012399     0.15890
C439        C  0.27487459  0.01990727  0.85386078    -0.13710
C440        C  0.25540661  0.99575879  0.84678786    -0.28880
H441        H  0.26521917  0.04301966  0.86062543     0.15310
H442        H  0.26723951  0.47417687  0.83250782     0.15890
C443        C  0.39056838  0.02019125  0.87560514    -0.10550
C444        C  0.41076027  0.01967482  0.89542822    -0.12110
C445        C  0.14094441  0.38880519  0.49763893    -0.10550
C446        C  0.12068924  0.40919754  0.49715517    -0.12110
C447        C  0.17134866  0.25209698  0.01970214    -0.13710
C448        C  0.16278945  0.27260067  0.99662480    -0.28880
H449        H  0.20195653  0.26077083  0.53316960     0.15310
H450        H  0.15305332  0.26398506  0.97457342     0.15890
C451        C  0.13807305  0.14318441  0.49955496    -0.10550
C452        C  0.11744338  0.12306822  0.49894455    -0.12110
C453        C  0.25184730  0.16758843  0.01922698    -0.13710
C454        C  0.27257014  0.16059332  0.99529144    -0.28880
H455        H  0.26323046  0.14307789  0.51383275     0.15310
H456        H  0.26412467  0.15298981  0.97231324     0.15890
C457        C  0.40706824  0.12037565  0.49944292    -0.10550
C458        C  0.38689847  0.14069020  0.49937691    -0.12110
C459        C  0.27561866  0.35985631  0.99648688    -0.13710
C460        C  0.25348098  0.34363036  0.01393841    -0.28880
H461        H  0.26848091  0.37774176  0.97913649     0.15310
H462        H  0.26271070  0.37612603  0.51866923     0.15890
C463        C  0.34156198  0.25253285  0.01394285    -0.13710
C464        C  0.35946473  0.27412364  0.99759911    -0.28880
H465        H  0.33587291  0.26145147  0.53791440     0.15310
H466        H  0.37870399  0.26636775  0.98152945     0.15890
C467        C  0.40689170  0.41062980  0.49957129    -0.10550
C468        C  0.38647552  0.39025757  0.49919483    -0.12110
C469        C  0.36519242  0.86456480  0.99796534     0.05850
C470        C  0.37397590  0.83219501  0.99816010    -0.10300
C471        C  0.35367796  0.80459206  0.49996221     0.03350
C472        C  0.32158427  0.81027012  0.49343225    -0.08820
C473        C  0.30948229  0.84116964  0.49101472     0.05850
C474        C  0.33293842  0.87337278  0.99718139    -0.08240
H475        H  0.39898871  0.82558256  0.99829041     0.11440
H476        H  0.30567571  0.79022636  0.49004871     0.08970
H477        H  0.32635369  0.89839741  0.99660962     0.08820
C478        C  0.36396689  0.66454253  0.99816396     0.05850
C479        C  0.36811499  0.69753971  0.00363610    -0.10300
C480        C  0.34306638  0.71637015  0.50960999     0.03350
C481        C  0.31216127  0.70479477  0.50549793    -0.08820
C482        C  0.30699513  0.67332045  0.49605087     0.05850
C483        C  0.33317898  0.65212249  0.99423021    -0.08240
H484        H  0.39174500  0.70713801  0.00714477     0.11440
H485        H  0.29191771  0.72061149  0.50908671     0.08970
H486        H  0.32986132  0.62681880  0.99031601     0.08820
C487        C  0.16538424  0.66458378  0.99807548     0.05850
C488        C  0.19697494  0.65446670  0.00214755    -0.10300
C489        C  0.22055404  0.67483294  0.51152464     0.03350
C490        C  0.21440344  0.70724633  0.51545665    -0.08880
C491        C  0.18402386  0.71983776  0.51099160     0.05850
C492        C  0.15681665  0.69663659  0.00262812    -0.08240
H493        H  0.20346862  0.62964530  0.99885655     0.11440
H494        H  0.23373986  0.72300876  0.52168582     0.08970
H495        H  0.13235862  0.70431071  0.99971163     0.08820
C496        C  0.16576232  0.86301054  0.99635126     0.05850
C497        C  0.19844801  0.86803154  0.00206206    -0.10300
C498        C  0.21907614  0.85015716  0.49909273     0.03350
C499        C  0.20982838  0.81789371  0.49748534    -0.08820
C500        C  0.17747792  0.80920803  0.49564187     0.05850
C501        C  0.15389280  0.83175445  0.99374257    -0.08240
H502        H  0.20761036  0.89202441  0.00458321     0.11440
H503        H  0.22786849  0.79936424  0.49793380     0.08970
H504        H  0.12878930  0.82778995  0.98963454     0.08820
C505        C  0.36762813  0.51739623  0.34928095     0.05850
C506        C  0.33562864  0.52085815  0.35956263    -0.10300
C507        C  0.31155104  0.52138890  0.33720562     0.03350
C508        C  0.31965542  0.51920386  0.30460806    -0.08820
C509        C  0.35170768  0.51639809  0.29391561     0.05850
C510        C  0.37563445  0.51481487  0.31656466    -0.08240
H511        H  0.32946213  0.52263190  0.38481340     0.11440
H512        H  0.30066940  0.51902926  0.28759992     0.08970
H513        H  0.40038189  0.51210054  0.30875559     0.08820
C514        C  0.16913435  0.51023531  0.34662680     0.05850
C515        C  0.20069064  0.50822921  0.35699774    -0.10300
C516        C  0.22549117  0.50088252  0.33513451     0.03350
C517        C  0.21868825  0.49569195  0.30322435    -0.08820
C518        C  0.18763612  0.49893101  0.29227834     0.05850
C519        C  0.16264644  0.50628111  0.31411318    -0.08240
H520        H  0.20577621  0.51139980  0.38198867     0.11440
H521        H  0.23809239  0.48996541  0.28650385     0.08970
H522        H  0.13833870  0.50794474  0.30613138     0.08820
C523        C  0.16244497  0.51812518  0.14876135     0.05850
C524        C  0.19480493  0.52369171  0.14084573    -0.10300
C525        C  0.21662148  0.52715851  0.16514796     0.03350
C526        C  0.20621070  0.52431007  0.19703182    -0.08820
C527        C  0.17422711  0.51743827  0.20526101     0.05850
C528        C  0.15207769  0.51513298  0.18097639    -0.08240
H529        H  0.20276896  0.52620061  0.11607260     0.11440
H530        H  0.22331760  0.52732347  0.21570138     0.08970
H531        H  0.12714320  0.51057470  0.18704014     0.08820
C532        C  0.36214901  0.51058928  0.15066895     0.05850
C533        C  0.36699674  0.51677379  0.18318011    -0.10300
C534        C  0.34057490  0.52206253  0.20392810     0.03350
C535        C  0.30984097  0.52091033  0.19204820    -0.08820
C536        C  0.30471987  0.51443622  0.15986966     0.05850
C537        C  0.33098660  0.50870440  0.13927666    -0.08240
H538        H  0.39099284  0.51861118  0.19192620     0.11440
H539        H  0.28954511  0.52465450  0.20829002     0.08970
H540        H  0.32724464  0.50395040  0.11427716     0.08820
C541        C  0.01285948  0.66733184  0.34874270     0.05850
C542        C  0.01580842  0.69812722  0.36117030    -0.10300
C543        C  0.01466587  0.72473117  0.34084992     0.03350
C544        C  0.00899276  0.72042461  0.30838774    -0.08820
C545        C  0.00596620  0.68992383  0.29565472     0.05850
C546        C  0.00835719  0.66307435  0.31586149    -0.08240
H547        H  0.01926825  0.70135525  0.38648340     0.11440
H548        H  0.00684400  0.74113359  0.29280902     0.08970
H549        H  0.00572145  0.63929875  0.30636516     0.08820
C550        C  0.01616873  0.86524755  0.35106903     0.05850
C551        C  0.02600181  0.83376466  0.35734315    -0.10300
C552        C  0.02704942  0.81161556  0.33253838     0.03350
C553        C  0.01778869  0.82085757  0.30207104    -0.08820
C554        C  0.00717602  0.85184334  0.29603702     0.05850
C555        C  0.00655621  0.87426623  0.32045323    -0.08240
H556        H  0.03311488  0.82670226  0.38106509     0.11440
H557        H  0.01811361  0.80352528  0.28300635     0.08970
H558        H  0.99841359  0.89837910  0.31574932     0.08820
C559        C  0.01799439  0.66395481  0.14958214     0.05850
C560        C  0.01763889  0.65538062  0.18214951    -0.10300
C561        C  0.01582312  0.67901269  0.20554253     0.03350
C562        C  0.01536497  0.71126305  0.19584679    -0.08820
C563        C  0.01530464  0.72019122  0.16338878     0.05850
C564        C  0.01714821  0.69630476  0.14024797    -0.08240
H565        H  0.01829215  0.63042633  0.18924609     0.11440
H566        H  0.01606097  0.72969227  0.21373651     0.08970
H567        H  0.01742116  0.70282615  0.11511675     0.08820
C568        C  0.01403333  0.86275957  0.15059983     0.05850
C569        C  0.01681359  0.87508496  0.18134955    -0.10300
C570        C  0.01194388  0.85528672  0.20805391     0.03350
C571        C  0.00513848  0.82289136  0.20384700    -0.08820
C572        C  0.00374935  0.80987503  0.17332772     0.05850
C573        C  0.00817702  0.82994957  0.14638819    -0.08240
H574        H  0.02193974  0.90020512  0.18452098     0.11440
H575        H  0.00209581  0.80732097  0.22458897     0.08970
H576        H  0.00621618  0.82039815  0.12259688     0.08820
O577        O  0.46228739  0.92456233  0.00169658    -0.77410
O578        O  0.46426478  0.60654697  0.00008928    -0.78960
O579        O  0.42507467  0.51188161  0.05396750    -0.75980
O580        O  0.42545972  0.51600588  0.44593776    -0.74360
O581        O  0.46533759  0.51606489  0.40717623    -0.76160
O582        O  0.46367050  0.50991791  0.09157148    -0.77090
O583        O  0.42544364  0.56799966  0.00057562    -0.78410
O584        O  0.42358934  0.96332128  0.00113323    -0.78700
Eu585      Eu  0.45142488  0.51474791  0.00053914     2.39200
O586        O  0.48354822  0.54798547  0.46633929    -0.86210
O587        O  0.48143562  0.98345831  0.03338432    -0.89820
C588        C  0.43302868  0.93398366  0.00127071     1.04870
C589        C  0.43492113  0.59740030  0.00010782     1.04690
C590        C  0.43436414  0.51014227  0.08304370     1.04640
C591        C  0.43575500  0.51611417  0.41660083     1.02490
H592        H  0.46989953  0.55890993  0.04667604     0.32240
O593        O  0.48348466  0.54611866  0.03286161    -0.98600
H594        H  0.46701683  0.96887050  0.45566513     0.32280
O595        O  0.48023279  0.98203584  0.46867760    -1.01140
O596        O  0.06716592  0.60636286  0.99627305    -0.78370
O597        O  0.06924750  0.92424287  0.99724769    -0.77910
O598        O  0.01645359  0.56568987  0.09057725    -0.76340
O599        O  0.01497425  0.56620586  0.40567933    -0.79680
O600        O  0.01492430  0.96226835  0.40981873    -0.77540
O601        O  0.01439538  0.95961984  0.08993310    -0.76190
O602        O  0.10682543  0.51580632  0.04925979    -0.77710
O603        O  0.10656748  0.51534891  0.44381332    -0.79630
O604        O  0.06779304  0.51426282  0.08886795    -0.76370
O605        O  0.06843479  0.51488619  0.40571074    -0.79050
O606        O  0.01657575  0.60504818  0.05207236    -0.74780
O607        O  0.01583249  0.92177988  0.05078704    -0.74810
O608        O  0.01406948  0.92364825  0.44906456    -0.74460
O609        O  0.01459381  0.60478075  0.44406144    -0.77950
O610        O  0.10639764  0.56815761  0.99535024    -0.77380
O611        O  0.10751275  0.96334044  0.99695781    -0.75710
Eu612      Eu  0.01507750  0.57960936  0.99957670     2.39770
Eu613      Eu  0.01585224  0.94964957  0.99931659     2.39570
Eu614      Eu  0.01579619  0.51366043  0.06386064     2.38400
Eu615      Eu  0.01558771  0.51430161  0.43293580     2.39880
Eu616      Eu  0.08103166  0.51561550  0.99711139     2.39790
O617        O  0.04572410  0.98285786  0.46749784    -0.90120
O618        O  0.04797360  0.54698895  0.03068032    -0.89010
C619        C  0.09655261  0.59726485  0.99494767     1.05050
C620        C  0.09855944  0.93391338  0.99658944     1.03770
C621        C  0.01692036  0.59518393  0.08133900     1.03160
C622        C  0.01461767  0.59543543  0.41480220     1.05170
C623        C  0.01486772  0.93299418  0.41967065     1.04090
C624        C  0.01525290  0.93046569  0.08014762     1.02930
C625        C  0.09714108  0.51514552  0.07882773     1.02990
C626        C  0.09761996  0.51525389  0.41461576     1.05610
H627        H  0.06080843  0.96857496  0.04454702     0.32980
O628        O  0.04738926  0.98185748  0.03157374    -1.02280
H629        H  0.06100416  0.56059766  0.45060243     0.35030
O630        O  0.04763621  0.54711496  0.46426438    -1.04850
C631        C  0.01567642  0.90543454  0.10376051    -0.10550
C632        C  0.01555567  0.88469842  0.12394907    -0.12110
C633        C  0.99706479  0.77526940  0.17173457    -0.13710
C634        C  0.01469413  0.75465530  0.15422800    -0.28880
H635        H  0.47959844  0.76306782  0.14740591     0.15310
H636        H  0.03092652  0.76332426  0.13534876     0.15890
C637        C  0.01784352  0.61907993  0.10560346    -0.10550
C638        C  0.01831243  0.63946451  0.12569976    -0.12110
C639        C  0.99547092  0.85901565  0.26417958    -0.13710
C640        C  0.01619554  0.86735385  0.24056507    -0.28880
H641        H  0.97301570  0.84788458  0.25822335     0.15310
H642        H  0.03912705  0.87775111  0.24604776     0.15890
C643        C  0.01590731  0.88849302  0.37589049    -0.10550
C644        C  0.01555682  0.90874714  0.39598009    -0.12110
C645        C  0.99895915  0.68820881  0.26136841    -0.13710
C646        C  0.01578875  0.67055122  0.24018397    -0.28880
H647        H  0.98308731  0.70654906  0.25242113     0.15310
H648        H  0.03162796  0.65184251  0.24836740     0.15890
C649        C  0.01772914  0.75751525  0.35297689    -0.13710
C650        C  0.03680142  0.77823970  0.33692131    -0.28880
H651        H  0.99994399  0.76593857  0.37032905     0.15310
H652        H  0.05345322  0.76893423  0.31887710     0.15890
C653        C  0.01422835  0.61955442  0.39029889    -0.10550
C654        C  0.01372498  0.64045617  0.37033069    -0.12110
C655        C  0.41002992  0.50868545  0.10799343    -0.10550
C656        C  0.38888123  0.50859510  0.12824912    -0.12110
C657        C  0.25036875  0.53517751  0.15884144    -0.13710
C658        C  0.27152782  0.51311325  0.14878871    -0.28880
H659        H  0.25910536  0.55604829  0.17106548     0.15310
H660        H  0.26309973  0.98367566  0.18838873     0.15890
C661        C  0.13985169  0.51624153  0.12372107    -0.10550
C662        C  0.12083806  0.51547179  0.10275458    -0.12110
C663        C  0.18348064  0.49450040  0.25769566    -0.13710
C664        C  0.16503436  0.51310997  0.23952206    -0.28880
H665        H  0.20129945  0.47969228  0.24555486     0.15310
H666        H  0.14692828  0.52854643  0.25017997     0.15890
C667        C  0.14332987  0.51414379  0.36977885    -0.10550
C668        C  0.12223608  0.51535203  0.38999587    -0.12110
C669        C  0.35966396  0.51378270  0.25917005    -0.13710
C670        C  0.34302210  0.53064594  0.23786944    -0.28880
H671        H  0.37716585  0.49625973  0.25115208     0.15310
H672        H  0.32589672  0.54819039  0.24670145     0.15890
C673        C  0.27750440  0.52342052  0.34704529    -0.13710
C674        C  0.25897123  0.49758229  0.34429363    -0.28880
H675        H  0.26673794  0.54695085  0.34891047     0.15310
H676        H  0.26551539  0.97251488  0.34270392     0.15890
C677        C  0.39221618  0.51659610  0.37246126    -0.10550
C678        C  0.41229181  0.51625631  0.39243477    -0.12110
C679        C  0.14359112  0.88942912  0.99530123    -0.10550
C680        C  0.12330663  0.90999206  0.99554864    -0.12110
C681        C  0.18055231  0.75453302  0.51620873    -0.13710
C682        C  0.16839583  0.77493641  0.49485299    -0.28880
H683        H  0.18307481  0.76151634  0.04087926     0.15310
H684        H  0.15449491  0.76626970  0.47527329     0.15890
C685        C  0.14099323  0.64140489  0.99336442    -0.10550
C686        C  0.12041083  0.62150786  0.99301269    -0.12110
C687        C  0.25320855  0.66381632  0.51658473    -0.13710
C688        C  0.27404408  0.66244058  0.49176230    -0.28880
H689        H  0.26214253  0.67627435  0.04097419     0.15310
H690        H  0.26557248  0.66103329  0.46754635     0.15890
C691        C  0.41096761  0.62211275  0.99933387    -0.10550
C692        C  0.39058443  0.64255795  0.99851530    -0.12110
C693        C  0.27548101  0.84384105  0.48288350    -0.13710
C694        C  0.25340681  0.85878019  0.50119362    -0.28880
H695        H  0.26731510  0.82738646  0.46496939     0.15310
H696        H  0.26085936  0.82645834  0.03176497     0.15890
C697        C  0.34616952  0.74998330  0.51901448    -0.13710
C698        C  0.36466199  0.77105782  0.50257356    -0.28880
H699        H  0.32316947  0.76032247  0.03019671     0.15310
H700        H  0.38390391  0.76300311  0.48666904     0.15890
C701        C  0.40905860  0.90967700  0.00033438    -0.10550
C702        C  0.38923249  0.88895740  0.99907275    -0.12110
C703        C  0.36283015  0.86196513  0.49980479     0.05850
C704        C  0.37451059  0.83054279  0.50232784    -0.10300
C705        C  0.35047669  0.80836297  0.99869863     0.03350
C706        C  0.31808637  0.81752784  0.99842072    -0.08820
C707        C  0.30913630  0.84996467  0.99775062     0.05850
C708        C  0.33008358  0.86733569  0.49462812    -0.08240
H709        H  0.39960526  0.82632306  0.50633728     0.11440
H710        H  0.29975332  0.79936408  0.99737947     0.08970
H711        H  0.32103414  0.89145016  0.49231575     0.08820
C712        C  0.36394212  0.66410994  0.49608039     0.05850
C713        C  0.36920564  0.69593546  0.50477826    -0.10300
C714        C  0.34118811  0.71766701  0.00599525     0.03350
C715        C  0.31085992  0.70465172  0.00259558    -0.08820
C716        C  0.30655931  0.67211861  0.99694767     0.05850
C717        C  0.33297223  0.65300929  0.49104876    -0.08240
H718        H  0.39320870  0.70438656  0.50867987     0.11440
H719        H  0.29011845  0.72011247  0.00451284     0.08970
H720        H  0.32903301  0.62843643  0.48432860     0.08820
C721        C  0.16478930  0.66604465  0.50068913     0.05850
C722        C  0.19583562  0.65412174  0.50408349    -0.10300
C723        C  0.21964083  0.67623194  0.01247044     0.03350
C724        C  0.21064906  0.70779125  0.01835070    -0.08880
C725        C  0.17957965  0.71826142  0.01298896     0.05850
C726        C  0.15886898  0.69915609  0.50345381    -0.08240
H727        H  0.20054020  0.62877364  0.50197871     0.11440
H728        H  0.22820773  0.72455456  0.02668908     0.08970
H729        H  0.13492519  0.70845344  0.50102974     0.08820
C730        C  0.16317004  0.86535161  0.49717437     0.05850
C731        C  0.19542395  0.87378178  0.49975316    -0.10300
C732        C  0.21881846  0.84161490  0.00588804     0.03350
C733        C  0.20646111  0.81088898  0.00367956    -0.08820
C734        C  0.17416782  0.80561468  0.99801082     0.05850
C735        C  0.15427064  0.83318664  0.49468801    -0.08240
H736        H  0.20212945  0.89866472  0.50166496     0.11440
H737        H  0.22234464  0.79063568  0.00641449     0.08970
H738        H  0.12931239  0.82680089  0.49294136     0.08820
C739        C  0.36621602  0.51950116  0.85256052     0.05850
C740        C  0.33410483  0.52281954  0.86276652    -0.10300
C741        C  0.30977305  0.51807654  0.84116590     0.03350
C742        C  0.31782472  0.51116701  0.80927266    -0.08820
C743        C  0.34961579  0.50837775  0.79879866     0.05850
C744        C  0.37403913  0.51261622  0.82044979    -0.08240
H745        H  0.32807937  0.52772845  0.88758487     0.11440
H746        H  0.29906065  0.50766437  0.79236643     0.08970
H747        H  0.39874114  0.50944650  0.81268403     0.08820
C748        C  0.16759251  0.51397566  0.84510879     0.05850
C749        C  0.19907320  0.51036488  0.85523192    -0.10300
C750        C  0.22322592  0.50173948  0.83320690     0.03350
C751        C  0.21591547  0.49709905  0.80131952    -0.08820
C752        C  0.18503072  0.50202073  0.79062434     0.05850
C753        C  0.16062046  0.51059535  0.81261536    -0.08240
H754        H  0.20446832  0.51284476  0.88023281     0.11440
H755        H  0.23475828  0.49015343  0.78443060     0.08970
H756        H  0.13633202  0.51326976  0.80481592     0.08820
C757        C  0.16315925  0.51919028  0.64638747     0.05850
C758        C  0.19597971  0.51811862  0.63798706    -0.10300
C759        C  0.21878717  0.51700046  0.66187216     0.03350
C760        C  0.20820395  0.51796630  0.69401013    -0.08820
C761        C  0.17559020  0.51857944  0.70265505     0.05850
C762        C  0.15306714  0.51974084  0.67869966    -0.08240
H763        H  0.20367861  0.51763833  0.61305251     0.11440
H764        H  0.22547710  0.51879410  0.71271577     0.08970
H765        H  0.12781980  0.52028703  0.68516382     0.08820
C766        C  0.36197497  0.51563222  0.65215878     0.05850
C767        C  0.37370258  0.51903767  0.68300435    -0.10300
C768        C  0.35320353  0.51533847  0.70977579     0.03350
C769        C  0.32074790  0.50911467  0.70540637    -0.08820
C770        C  0.30840193  0.50691574  0.67482204     0.05850
C771        C  0.32917210  0.51017345  0.64795642    -0.08240
H772        H  0.39886503  0.52363131  0.68619316     0.11440
H773        H  0.30466218  0.50688346  0.72611391     0.08970
H774        H  0.32013210  0.50758600  0.62416242     0.08820
C775        C  0.01291251  0.66470844  0.84657206     0.05850
C776        C  0.01941273  0.69695837  0.85270798    -0.10300
C777        C  0.02441184  0.71844151  0.82713369     0.03350
C778        C  0.02261634  0.70755809  0.79582851    -0.08820
C779        C  0.01575657  0.67555710  0.78935430     0.05850
C780        C  0.01039671  0.65417614  0.81495464    -0.08240
H781        H  0.02146963  0.70502157  0.87705977     0.11440
H782        H  0.02575177  0.72453427  0.77623354     0.08970
H783        H  0.00525522  0.62933090  0.81029857     0.08820
C784        C  0.01391433  0.86294949  0.85198262     0.05850
C785        C  0.01572953  0.83096751  0.86248079    -0.10300
C786        C  0.01229635  0.80621127  0.84065241     0.03350
C787        C  0.00546301  0.81377109  0.80888550    -0.08820
C788        C  0.00367148  0.84541899  0.79831404     0.05850
C789        C  0.00836030  0.87019777  0.81977582    -0.08240
H790        H  0.02008225  0.82542153  0.88731343     0.11440
H791        H  0.00141088  0.79474596  0.79211331     0.08970
H792        H  0.00653724  0.89480959  0.81176990     0.08820
C793        C  0.01609979  0.66569999  0.64573954     0.05850
C794        C  0.02125516  0.65827578  0.67802480    -0.10300
C795        C  0.02484751  0.68294783  0.69989856     0.03350
C796        C  0.02241458  0.71466385  0.68958399    -0.08820
C797        C  0.01616922  0.72239040  0.65769190     0.05850
C798        C  0.01375879  0.69774745  0.63555347    -0.08240
H799        H  0.02362786  0.63364362  0.68578967     0.11440
H800        H  0.02579155  0.73361203  0.70660505     0.08970
H801        H  0.00985001  0.70343735  0.61066491     0.08820
C802        C  0.01380311  0.86453344  0.65214734     0.05850
C803        C  0.01713164  0.87463691  0.68375473    -0.10300
C804        C  0.01290313  0.85285006  0.70910402     0.03350
C805        C  0.00647739  0.82080768  0.70245532    -0.08820
C806        C  0.00388061  0.81027770  0.67111231     0.05850
C807        C  0.00768508  0.83221961  0.64570131    -0.08240
H808        H  0.02186435  0.89951837  0.68864914     0.11440
H809        H  0.00404845  0.80361236  0.72194673     0.08970
H810        H  0.00493310  0.82447473  0.62133565     0.08820
O811        O  0.45891529  0.92373571  0.50257612    -0.77410
O812        O  0.46302744  0.60675545  0.49736882    -0.78960
O813        O  0.42146334  0.51570450  0.55074083    -0.75980
O814        O  0.42553589  0.51735386  0.94865701    -0.74360
O815        O  0.46444215  0.51788309  0.90892312    -0.76160
O816        O  0.45886093  0.51441183  0.58957282    -0.77090
O817        O  0.42426889  0.56819775  0.49657536    -0.78410
O818        O  0.42050135  0.96267423  0.50188153    -0.78700
Eu819      Eu  0.44986163  0.51551096  0.49855047     2.39200
O820        O  0.48417333  0.54771798  0.96789201    -0.86210
O821        O  0.47924504  0.98269614  0.53390326    -0.89820
C822        C  0.42958215  0.93325139  0.50238506     1.04870
C823        C  0.43386260  0.59743791  0.49633557     1.04690
C824        C  0.42981529  0.51518847  0.58010544     1.04640
C825        C  0.43510381  0.51833138  0.91908815     1.02490
H826        H  0.46724171  0.56064381  0.54441487     0.32240
O827        O  0.48106794  0.54744157  0.53126004    -0.98600
H828        H  0.46929262  0.97001620  0.95585859     0.32280
O829        O  0.48243577  0.98315086  0.96893554    -1.01140
O830        O  0.06621464  0.60665854  0.49626018    -0.78370
O831        O  0.06522567  0.92473319  0.49914543    -0.77910
O832        O  0.01334740  0.56606735  0.58906352    -0.76340
O833        O  0.01389254  0.56874580  0.90846240    -0.79680
O834        O  0.01665473  0.96282009  0.90843981    -0.77540
O835        O  0.01224792  0.96213096  0.59130470    -0.76190
O836        O  0.10505613  0.51630782  0.54891192    -0.77710
O837        O  0.10712471  0.51710212  0.94360681    -0.79630
O838        O  0.06580986  0.51536699  0.58834465    -0.76370
O839        O  0.06835571  0.51784151  0.90617211    -0.79050
O840        O  0.01424761  0.60475552  0.54982022    -0.74780
O841        O  0.01281156  0.92359748  0.55288597    -0.74810
O842        O  0.01689738  0.92375444  0.94717825    -0.74460
O843        O  0.01276912  0.60682204  0.94732335    -0.77950
O844        O  0.10532149  0.56845090  0.49609801    -0.77380
O845        O  0.10392078  0.96353804  0.49800267    -0.75710
Eu846      Eu  0.01478264  0.57898147  0.49728079     2.39770
Eu847      Eu  0.01243605  0.95039985  0.50061860     2.39570
Eu848      Eu  0.01338708  0.51373896  0.56309633     2.38400
Eu849      Eu  0.01622469  0.51607576  0.93444715     2.39880
Eu850      Eu  0.07959502  0.51514765  0.49684375     2.39790
O851        O  0.04842123  0.98250867  0.96626338    -0.90120
O852        O  0.04629692  0.54656926  0.52983890    -0.89010
C853        C  0.09561304  0.59775166  0.49596794     1.05050
C854        C  0.09452849  0.93421919  0.49829491     1.03770
C855        C  0.01377188  0.59538608  0.57928835     1.03160
C856        C  0.01260062  0.59786513  0.91797584     1.05170
C857        C  0.01705560  0.93341622  0.91787186     1.04090
C858        C  0.01287570  0.93283552  0.58209867     1.02930
C859        C  0.09529383  0.51634124  0.57841912     1.02990
C860        C  0.09767383  0.51794625  0.91457785     1.05610
H861        H  0.05792400  0.96992172  0.54497043     0.32980
O862        O  0.04464517  0.98311891  0.53176223    -1.02280
H863        H  0.06101591  0.56206019  0.95213514     0.35030
O864        O  0.04811025  0.54832543  0.96597550    -1.04850
C865        C  0.01397431  0.90840446  0.60629760    -0.10550
C866        C  0.01459000  0.88791250  0.62670899    -0.12110
C867        C  0.99632362  0.77616225  0.66709797    -0.13710
C868        C  0.01363773  0.75654420  0.64825675    -0.28880
H869        H  0.48252216  0.76329566  0.64260992     0.15310
H870        H  0.02957941  0.76600738  0.62951864     0.15890
C871        C  0.01380716  0.61968401  0.60315785    -0.10550
C872        C  0.01440863  0.64048432  0.62279219    -0.12110
C873        C  0.99485581  0.85091349  0.76501414    -0.13710
C874        C  0.01559147  0.86266035  0.74279021    -0.28880
H875        H  0.97421638  0.83768737  0.75723822     0.15310
H876        H  0.03670664  0.87560463  0.74973704     0.15890
C877        C  0.01642006  0.88834757  0.87452518    -0.10550
C878        C  0.01727125  0.90932521  0.89389112    -0.12110
C879        C  0.01315853  0.66558743  0.75561697    -0.13710
C880        C  0.03377193  0.67736096  0.73322959    -0.28880
H881        H  0.99207433  0.65256342  0.74873542     0.15310
H882        H  0.05445236  0.69058822  0.74089853     0.15890
C883        C  0.03194034  0.75254564  0.83105257    -0.13710
C884        C  0.01484382  0.77212318  0.85012608    -0.28880
H885        H  0.04712142  0.76331010  0.81231821     0.15310
H886        H  0.99900320  0.76269371  0.86896774     0.15890
C887        C  0.01110793  0.62224885  0.89375561    -0.10550
C888        C  0.01092857  0.64197244  0.87257419    -0.12110
C889        C  0.40468096  0.51579264  0.60425015    -0.10550
C890        C  0.38426338  0.51619847  0.62522821    -0.12110
C891        C  0.25375043  0.51617334  0.65387468    -0.13710
C892        C  0.27376102  0.50032695  0.67304602    -0.28880
H893        H  0.26313601  0.53085758  0.63421653     0.15310
H894        H  0.26161869  0.98416987  0.69156103     0.15890
C895        C  0.13960312  0.51865362  0.62199288    -0.10550
C896        C  0.11933842  0.51763372  0.60214043    -0.12110
C897        C  0.18012852  0.49667024  0.75635810    -0.13710
C898        C  0.16599171  0.51785337  0.73706002    -0.28880
H899        H  0.19485660  0.47819530  0.74531936     0.15310
H900        H  0.15132376  0.53700386  0.74679169     0.15890
C901        C  0.14226070  0.51803541  0.86868290    -0.10550
C902        C  0.12176485  0.51883110  0.88949951    -0.12110
C903        C  0.35546418  0.49830738  0.76560654    -0.13710
C904        C  0.36472996  0.51917692  0.74260295    -0.28880
H905        H  0.34331319  0.47663369  0.75869391     0.15310
H906        H  0.37616655  0.54147582  0.74870075     0.15890
C907        C  0.27561096  0.51939172  0.85105264    -0.13710
C908        C  0.25633982  0.49572658  0.84215145    -0.28880
H909        H  0.26578001  0.54174605  0.85981501     0.15310
H910        H  0.26607509  0.97347055  0.83874147     0.15890
C911        C  0.39088571  0.52060498  0.87563530    -0.10550
C912        C  0.41111234  0.51995052  0.89546388    -0.12110
C913        C  0.13906441  0.88975626  0.49739194    -0.10550
C914        C  0.11874548  0.91009095  0.49773659    -0.12110
C915        C  0.17216055  0.75180255  0.01984162    -0.13710
C916        C  0.16267050  0.77227079  0.99711869    -0.28880
H917        H  0.19454562  0.76442628  0.53519441     0.15310
H918        H  0.15237930  0.76364087  0.97533958     0.15890
C919        C  0.13916250  0.64350559  0.49686731    -0.10550
C920        C  0.11929827  0.62265832  0.49574671    -0.12110
C921        C  0.25273245  0.66722713  0.01890352    -0.13710
C922        C  0.27358658  0.65996609  0.99513936    -0.28880
H923        H  0.26234186  0.66746211  0.54029408     0.15310
H924        H  0.26524548  0.65234872  0.97212664     0.15890
C925        C  0.41015039  0.62174017  0.49493937    -0.10550
C926        C  0.38983030  0.64190866  0.49458380    -0.12110
C927        C  0.27493311  0.85915676  0.99608181    -0.13710
C928        C  0.25278730  0.84372201  0.01416653    -0.28880
H929        H  0.26784031  0.87646438  0.97813810     0.15310
H930        H  0.26061198  0.87529883  0.51943368     0.15890
C931        C  0.34216166  0.75199434  0.01408123    -0.13710
C932        C  0.35958325  0.77394301  0.99767617    -0.28880
H933        H  0.32692316  0.75923449  0.53430462     0.15310
H934        H  0.37883479  0.76651943  0.98145811     0.15890
C935        C  0.40501418  0.90912031  0.50231023    -0.10550
C936        C  0.38498177  0.88834619  0.50152598    -0.12110
C937        C  0.86667144  0.36350919  0.99742455     0.05850
C938        C  0.87487174  0.33100378  0.99754242    -0.10300
C939        C  0.85570064  0.30499212  0.49791034     0.03350
C940        C  0.82378734  0.31125649  0.49104020    -0.08820
C941        C  0.81231660  0.34245625  0.48842667     0.05850
C942        C  0.83448925  0.37286842  0.99702579    -0.08240
H943        H  0.89976943  0.32394672  0.99744233     0.11440
H944        H  0.80751200  0.29145077  0.48795814     0.08970
H945        H  0.82831700  0.39799502  0.99655467     0.08820
C946        C  0.86275794  0.16397614  0.99746172     0.05850
C947        C  0.86710555  0.19692322  0.00285756    -0.10300
C948        C  0.84299750  0.21764160  0.51190496     0.03350
C949        C  0.81150195  0.20715798  0.50953770    -0.08820
C950        C  0.80451195  0.17555283  0.50152802     0.05850
C951        C  0.83192456  0.15161194  0.99390247    -0.08240
H952        H  0.89081969  0.20643244  0.00610045     0.11440
H953        H  0.79223532  0.22420167  0.51286455     0.08970
H954        H  0.82849348  0.12630236  0.99009723     0.08820
C955        C  0.66478808  0.16456956  0.99870876     0.05850
C956        C  0.69629368  0.15436957  0.00292844    -0.10300
C957        C  0.71545071  0.18328019  0.50800014     0.03350
C958        C  0.70615455  0.21516770  0.50533792    -0.08880
C959        C  0.67468125  0.22350984  0.49832709     0.05850
C960        C  0.65627902  0.19666332  0.00332128    -0.08240
H961        H  0.70277519  0.12956398  0.99948127     0.11440
H962        H  0.72383727  0.23366536  0.50858196     0.08970
H963        H  0.63188460  0.20443852  0.00021431     0.08820
C964        C  0.66693344  0.36305248  0.99563438     0.05850
C965        C  0.69962296  0.36795469  0.00145329    -0.10300
C966        C  0.72343428  0.35483132  0.50033328     0.03350
C967        C  0.71561394  0.32267545  0.50623475    -0.08820
C968        C  0.68386060  0.31246181  0.50818299     0.05850
C969        C  0.65484600  0.33184362  0.99350028    -0.08240
H970        H  0.70895311  0.39193653  0.00350701     0.11440
H971        H  0.73448170  0.30534229  0.50965178     0.08970
H972        H  0.62976453  0.32799593  0.98917665     0.08820
C973        C  0.86352034  0.01913572  0.35289741     0.05850
C974        C  0.83200147  0.02275060  0.36471554    -0.10300
C975        C  0.80658875  0.01841423  0.34438830     0.03350
C976        C  0.81287394  0.01136711  0.31222739    -0.08820
C977        C  0.84410586  0.00826496  0.30015409     0.05850
C978        C  0.86969056  0.01232394  0.32047711    -0.08240
H979        H  0.82726461  0.02758350  0.38979304     0.11440
H980        H  0.79315850  0.00799792  0.29641197     0.08970
H981        H  0.89397520  0.00893319  0.31149893     0.08820
C982        C  0.66546401  0.01154529  0.34795033     0.05850
C983        C  0.69616997  0.00796111  0.35991896    -0.10300
C984        C  0.72161934  0.99998519  0.33929335     0.03350
C985        C  0.71647167  0.99593255  0.30683542    -0.08820
C986        C  0.68637213  0.00097016  0.29415251     0.05850
C987        C  0.66052978  0.00881268  0.31489594    -0.08240
H988        H  0.70003334  0.01017818  0.38528574     0.11440
H989        H  0.73644692  0.98953451  0.29109127     0.08970
H990        H  0.63679453  0.01159949  0.30570135     0.08820
C991        C  0.66243493  0.02074246  0.14909453     0.05850
C992        C  0.69501938  0.02118940  0.13990914    -0.10300
C993        C  0.71837114  0.01949243  0.16311559     0.03350
C994        C  0.70869477  0.01846197  0.19553411    -0.08820
C995        C  0.67625051  0.01778726  0.20510926     0.05850
C996        C  0.65309983  0.01942201  0.18166666    -0.08240
H997        H  0.70214954  0.02211161  0.11481482     0.11440
H998        H  0.72667636  0.01878715  0.21358617     0.08970
H999        H  0.62798307  0.01895744  0.18868683     0.08820
C1000       C  0.86202263  0.01471344  0.15326813     0.05850
C1001       C  0.87247805  0.01762437  0.18466034    -0.10300
C1002       C  0.85072887  0.01459090  0.21053422     0.03350
C1003       C  0.81833466  0.00965204  0.20465957    -0.08820
C1004       C  0.80741759  0.00750616  0.17356856     0.05850
C1005       C  0.82934702  0.01013205  0.14760337    -0.08240
H1006       H  0.89758657  0.02129920  0.18897086     0.11440
H1007       H  0.80116579  0.00804736  0.22453832     0.08970
H1008       H  0.82127102  0.00763548  0.12342212     0.08820
C1009       C  0.51748466  0.16783215  0.35010951     0.05850
C1010       C  0.51729713  0.19879645  0.36269550    -0.10300
C1011       C  0.52055995  0.22526890  0.34223555     0.03350
C1012       C  0.52512441  0.22062859  0.30938073    -0.08820
C1013       C  0.52515066  0.19003179  0.29636441     0.05850
C1014       C  0.52094062  0.16336904  0.31682262    -0.08240
H1015       H  0.51421973  0.20227986  0.38821639     0.11440
H1016       H  0.52815784  0.24126476  0.29367369     0.08970
H1017       H  0.52132081  0.13949785  0.30712656     0.08820
C1018       C  0.51358348  0.36580275  0.34967828     0.05850
C1019       C  0.50980422  0.33343122  0.35849150    -0.10300
C1020       C  0.50014930  0.31135448  0.33574931     0.03350
C1021       C  0.49454699  0.32181267  0.30463538    -0.08820
C1022       C  0.49969088  0.35356768  0.29540413     0.05850
C1023       C  0.50936191  0.37570150  0.31790773    -0.08240
H1024       H  0.51315242  0.32574960  0.38296368     0.11440
H1025       H  0.48694068  0.30479210  0.28706087     0.08970
H1026       H  0.51230162  0.40058159  0.31105754     0.08820
C1027       C  0.51354287  0.16490163  0.15076011     0.05850
C1028       C  0.51226374  0.15608346  0.18331236    -0.10300
C1029       C  0.51311361  0.17959828  0.20684796     0.03350
C1030       C  0.51344030  0.21191619  0.19731266    -0.08820
C1031       C  0.51406233  0.22100887  0.16486216     0.05850
C1032       C  0.51488712  0.19725592  0.14163636    -0.08240
H1033       H  0.51145902  0.13108160  0.19024955     0.11440
H1034       H  0.51352650  0.23020002  0.21537345     0.08970
H1035       H  0.51603645  0.20393251  0.11653575     0.08820
C1036       C  0.51776285  0.36375968  0.15081661     0.05850
C1037       C  0.52082651  0.37637776  0.18152795    -0.10300
C1038       C  0.51634111  0.35664368  0.20844336     0.03350
C1039       C  0.50974577  0.32420390  0.20445481    -0.08820
C1040       C  0.50740274  0.31113788  0.17410790     0.05850
C1041       C  0.51155930  0.33096907  0.14699660    -0.08240
H1042       H  0.52544077  0.40161567  0.18449278     0.11440
H1043       H  0.50653888  0.30884314  0.22535223     0.08970
H1044       H  0.50883253  0.32129258  0.12335029     0.08820
O1045       O  0.96515717  0.42310557  0.99935088    -0.77410
O1046       O  0.96276440  0.10625604  0.99968758    -0.78960
O1047       O  0.92235399  0.01406943  0.05319085    -0.75980
O1048       O  0.92290010  0.01666082  0.44785042    -0.74360
O1049       O  0.96245007  0.01637137  0.40881746    -0.76160
O1050       O  0.96034868  0.01313444  0.09144452    -0.77090
O1051       O  0.92409842  0.06754352  0.99982212    -0.78410
O1052       O  0.92578556  0.46116755  0.00042833    -0.78700
Eu1053     Eu  0.94996387  0.01432366  0.00075486     2.39200
O1054       O  0.98088490  0.04728280  0.46750681    -0.86210
O1055       O  0.98410108  0.48135636  0.03206355    -0.89820
C1056       C  0.93567213  0.43202463  0.99977586     1.04870
C1057       C  0.93350052  0.09695587  0.99942219     1.04690
C1058       C  0.93114420  0.01368321  0.08239320     1.04640
C1059       C  0.93299703  0.01717158  0.41845140     1.02490
H1060       H  0.96824681  0.05961344  0.04638318     0.32240
O1061       O  0.98174962  0.04640739  0.03289421    -0.98600
H1062       H  0.96926077  0.46857514  0.45297795     0.32280
O1063       O  0.98236542  0.48187645  0.46596266    -1.01140
O1064       O  0.56695299  0.10651677  0.99675654    -0.78370
O1065       O  0.57059925  0.42439405  0.99545643    -0.77910
O1066       O  0.51346598  0.06773148  0.09121885    -0.76340
O1067       O  0.51334090  0.06669534  0.40807107    -0.79680
O1068       O  0.51912279  0.46360672  0.40777722    -0.77540
O1069       O  0.51693946  0.45907416  0.08868644    -0.76190
O1070       O  0.60487641  0.01724945  0.05121582    -0.77710
O1071       O  0.60378225  0.01540534  0.44551173    -0.79630
O1072       O  0.56548686  0.01722305  0.09048427    -0.76370
O1073       O  0.56538541  0.01516537  0.40772688    -0.79050
O1074       O  0.51473714  0.10653856  0.05216065    -0.74780
O1075       O  0.51748475  0.42151588  0.04932218    -0.74810
O1076       O  0.51721658  0.42464791  0.44671485    -0.74460
O1077       O  0.51274259  0.10567979  0.44602260    -0.77950
O1078       O  0.60562649  0.06777534  0.99623807    -0.77380
O1079       O  0.60888189  0.46348918  0.99474373    -0.75710
Eu1080     Eu  0.51471406  0.08040871  0.99969539     2.39770
Eu1081     Eu  0.51725710  0.44989835  0.99768639     2.39570
Eu1082     Eu  0.51331512  0.01571582  0.06508967     2.38400
Eu1083     Eu  0.51334804  0.01466421  0.43567079     2.39880
Eu1084     Eu  0.57941617  0.01547685  0.99898617     2.39790
O1085       O  0.54794853  0.48375698  0.46651329    -0.90120
O1086       O  0.54661632  0.04789355  0.03180888    -0.89010
C1087       C  0.59618569  0.09703771  0.99553572     1.05050
C1088       C  0.59991547  0.43406153  0.99457831     1.03770
C1089       C  0.51412774  0.09705297  0.08161144     1.03160
C1090       C  0.51308270  0.09607836  0.41682923     1.05170
C1091       C  0.51889745  0.43420244  0.41736530     1.04090
C1092       C  0.51747578  0.43001261  0.07879558     1.02930
C1093       C  0.59498521  0.01782600  0.08070464     1.02990
C1094       C  0.59457552  0.01555583  0.41635472     1.05610
H1095       H  0.56266844  0.46801045  0.04245159     0.32980
O1096       O  0.54922248  0.48156517  0.02978988    -1.02280
H1097       H  0.55878615  0.06064476  0.45290105     0.35030
O1098       O  0.54538646  0.04737933  0.46673074    -1.04850
C1099       C  0.51832062  0.40511081  0.10261822    -0.10550
C1100       C  0.51870766  0.38523199  0.12368634    -0.12110
C1101       C  0.49891501  0.27697250  0.17288245    -0.13710
C1102       C  0.51548090  0.25540179  0.15564919    -0.28880
H1103       H  0.97764444  0.26531906  0.18348322     0.15310
H1104       H  0.53225545  0.26312152  0.13682271     0.15890
C1105       C  0.51401288  0.12101913  0.10582008    -0.10550
C1106       C  0.51378091  0.14081891  0.12649930    -0.12110
C1107       C  0.49370628  0.36218711  0.26201568    -0.13710
C1108       C  0.51785779  0.36897374  0.24126590    -0.28880
H1109       H  0.47162821  0.35306118  0.25258354     0.15310
H1110       H  0.54082839  0.37671511  0.24973008     0.15890
C1111       C  0.51868425  0.38944583  0.37361379    -0.10550
C1112       C  0.51994129  0.40998244  0.39344720    -0.12110
C1113       C  0.53096505  0.18808129  0.26139014    -0.13710
C1114       C  0.51315474  0.17103928  0.24151839    -0.28880
H1115       H  0.54731342  0.20578859  0.25103426     0.15310
H1116       H  0.49679487  0.15285446  0.25086589     0.15890
C1117       C  0.51838674  0.25835041  0.35395908    -0.13710
C1118       C  0.49524930  0.27706927  0.34265815    -0.28880
H1119       H  0.53907118  0.26869522  0.36494001     0.15310
H1120       H  0.47602213  0.26562632  0.33014176     0.15890
C1121       C  0.51362747  0.12007631  0.39199702    -0.10550
C1122       C  0.51491873  0.14096219  0.37187990    -0.12110
C1123       C  0.90624107  0.01425401  0.10675002    -0.10550
C1124       C  0.88539560  0.01483825  0.12728290    -0.12110
C1125       C  0.75305109  0.01950138  0.15420281    -0.13710
C1126       C  0.77307596  0.00065131  0.17037924    -0.28880
H1127       H  0.76229481  0.03708125  0.13703218     0.15310
H1128       H  0.76300748  0.49249690  0.13804224     0.15890
C1129       C  0.63858843  0.02038314  0.12497499    -0.10550
C1130       C  0.61875539  0.01930746  0.10469266    -0.12110
C1131       C  0.68409895  0.99693314  0.25919171    -0.13710
C1132       C  0.66728333  0.01594155  0.23979187    -0.28880
H1133       H  0.70142126  0.98077394  0.24819846     0.15310
H1134       H  0.64937566  0.03218198  0.24949708     0.15890
C1135       C  0.63911298  0.01533890  0.37041017    -0.10550
C1136       C  0.61867591  0.01612216  0.39128387    -0.12110
C1137       C  0.84813084  0.99829622  0.26673997    -0.13710
C1138       C  0.86104706  0.01746692  0.24392320    -0.28880
H1139       H  0.83326580  0.97846473  0.25966433     0.15310
H1140       H  0.87576189  0.03765225  0.25022379     0.15890
C1141       C  0.77303967  0.01985992  0.35593797    -0.13710
C1142       C  0.75409280  0.99486576  0.35039667    -0.28880
H1143       H  0.76279566  0.04314798  0.36104677     0.15310
H1144       H  0.76700609  0.47827388  0.31202280     0.15890
C1145       C  0.88915784  0.01973696  0.37480222    -0.10550
C1146       C  0.90949500  0.01880523  0.39444449    -0.12110
C1147       C  0.64493513  0.38957177  0.99391078    -0.10550
C1148       C  0.62466449  0.41014087  0.99372096    -0.12110
C1149       C  0.66595084  0.25780700  0.49594559    -0.13710
C1150       C  0.67805204  0.27867183  0.51651176    -0.28880
H1151       H  0.68271561  0.26155453  0.04167791     0.15310
H1152       H  0.69088173  0.26950141  0.53684002     0.15890
C1153       C  0.64051523  0.14130953  0.99379204    -0.10550
C1154       C  0.62021934  0.12111431  0.99342811    -0.12110
C1155       C  0.74814018  0.17696338  0.51805799    -0.13710
C1156       C  0.77081860  0.16598741  0.49770175    -0.28880
H1157       H  0.76172276  0.17598345  0.04157853     0.15310
H1158       H  0.76431914  0.15399736  0.47596615     0.15890
C1159       C  0.90955145  0.12152883  0.99846479    -0.10550
C1160       C  0.88924544  0.14197201  0.99764204    -0.12110
C1161       C  0.77820490  0.34600482  0.48117105    -0.13710
C1162       C  0.75761892  0.36423848  0.49810472    -0.28880
H1163       H  0.76836776  0.32763399  0.46615980     0.15310
H1164       H  0.76190787  0.32596762  0.03147954     0.15890
C1165       C  0.84767914  0.25152679  0.51966678    -0.13710
C1166       C  0.86591607  0.27131407  0.50141646    -0.28880
H1167       H  0.82260541  0.25999735  0.02948223     0.15310
H1168       H  0.88396106  0.26202059  0.48483729     0.15890
C1169       C  0.91180158  0.40753167  0.99905193    -0.10550
C1170       C  0.89135204  0.38735349  0.99813269    -0.12110
C1171       C  0.86581973  0.36210663  0.49778819     0.05850
C1172       C  0.87695135  0.33052842  0.50049551    -0.10300
C1173       C  0.85097996  0.30759687  0.99825219     0.03350
C1174       C  0.81875429  0.31726922  0.99817838    -0.08820
C1175       C  0.81025909  0.34981548  0.99776856     0.05850
C1176       C  0.83334100  0.36814744  0.49225163    -0.08240
H1177       H  0.90188619  0.32588322  0.50493323     0.11440
H1178       H  0.80015600  0.29938235  0.99710213     0.08970
H1179       H  0.82479105  0.39245596  0.49000107     0.08820
C1180       C  0.86134762  0.16421370  0.49918312     0.05850
C1181       C  0.86813826  0.19609074  0.50663792    -0.10300
C1182       C  0.84028607  0.21711282  0.00551023     0.03350
C1183       C  0.80986494  0.20420594  0.00245876    -0.08820
C1184       C  0.80542107  0.17167191  0.99691083     0.05850
C1185       C  0.82964419  0.15416915  0.49588580    -0.08240
H1186       H  0.89262431  0.20381972  0.50907673     0.11440
H1187       H  0.78918668  0.21972643  0.00459997     0.08970
H1188       H  0.82453107  0.12963692  0.48985240     0.08820
C1189       C  0.66158781  0.16696267  0.49643967     0.05850
C1190       C  0.69320616  0.15901301  0.50341451    -0.10300
C1191       C  0.71890821  0.17598618  0.01355033     0.03350
C1192       C  0.71002139  0.20754263  0.01952672    -0.08880
C1193       C  0.67907291  0.21819347  0.01391164     0.05850
C1194       C  0.65245342  0.19917420  0.49330140    -0.08240
H1195       H  0.70014310  0.13425144  0.50637880     0.11440
H1196       H  0.72762069  0.22420235  0.02797894     0.08970
H1197       H  0.62799473  0.20524572  0.48809956     0.08820
C1198       C  0.66670726  0.36718030  0.49984815     0.05850
C1199       C  0.69877291  0.37725777  0.49792098    -0.10300
C1200       C  0.71977250  0.34146784  0.00595624     0.03350
C1201       C  0.70711530  0.31076023  0.00437695    -0.08820
C1202       C  0.67483898  0.30562247  0.99843589     0.05850
C1203       C  0.65924482  0.33469410  0.50455276    -0.08240
H1204       H  0.70447279  0.40229862  0.49430749     0.11440
H1205       H  0.72277742  0.29041956  0.00762055     0.08970
H1206       H  0.63455758  0.32698006  0.50655642     0.08820
C1207       C  0.86547810  0.01869656  0.85297330     0.05850
C1208       C  0.83372979  0.02295874  0.86387684    -0.10300
C1209       C  0.80879370  0.01835122  0.84300588     0.03350
C1210       C  0.81582035  0.01051901  0.81115982    -0.08820
C1211       C  0.84727589  0.00683467  0.79997547     0.05850
C1212       C  0.87236618  0.01103280  0.82087104    -0.08240
H1213       H  0.82842338  0.02846190  0.88870764     0.11440
H1214       H  0.79650724  0.00703798  0.79487602     0.08970
H1215       H  0.89681281  0.00722151  0.81256986     0.08820
C1216       C  0.66689365  0.01316404  0.84729811     0.05850
C1217       C  0.69799488  0.00973618  0.85835276    -0.10300
C1218       C  0.72288753  0.00187653  0.83697495     0.03350
C1219       C  0.71676353  0.99781122  0.80471903    -0.08820
C1220       C  0.68618609  0.00249740  0.79304820     0.05850
C1221       C  0.66096418  0.01029097  0.81448516    -0.08240
H1222       H  0.70256422  0.01181835  0.88359040     0.11440
H1223       H  0.73626721  0.99139624  0.78837813     0.08970
H1224       H  0.63690644  0.01276598  0.80601730     0.08820
C1225       C  0.66158727  0.01937209  0.64832490     0.05850
C1226       C  0.69428013  0.01865420  0.63930539    -0.10300
C1227       C  0.71753258  0.01749615  0.66273830     0.03350
C1228       C  0.70759027  0.01822950  0.69504145    -0.08820
C1229       C  0.67514953  0.01822881  0.70441716     0.05850
C1230       C  0.65211932  0.01939612  0.68087273    -0.08240
H1231       H  0.70153721  0.01842542  0.61424342     0.11440
H1232       H  0.72534527  0.01925256  0.71328084     0.08970
H1233       H  0.62698579  0.01960160  0.68781898     0.08820
C1234       C  0.86060786  0.01520419  0.65330494     0.05850
C1235       C  0.87205167  0.01766027  0.68432291    -0.10300
C1236       C  0.85130848  0.01335005  0.71077891     0.03350
C1237       C  0.81885809  0.00745247  0.70590430    -0.08820
C1238       C  0.80684127  0.00613011  0.67511089     0.05850
C1239       C  0.82787256  0.01003310  0.64856564    -0.08240
H1240       H  0.89719668  0.02204653  0.68787012     0.11440
H1241       H  0.80249703  0.00487250  0.72635110     0.08970
H1242       H  0.81908498  0.00814628  0.62459433     0.08820
C1243       C  0.51332741  0.16372645  0.84659319     0.05850
C1244       C  0.50903249  0.19616903  0.85364951    -0.10300
C1245       C  0.50581001  0.21837330  0.82875548     0.03350
C1246       C  0.50781758  0.20812806  0.79706390    -0.08820
C1247       C  0.51314261  0.17589288  0.78974491     0.05850
C1248       C  0.51514484  0.15354722  0.81471922    -0.08240
H1249       H  0.50698907  0.20387013  0.87825758     0.11440
H1250       H  0.50482396  0.22540763  0.77789663     0.08970
H1251       H  0.51839077  0.12847474  0.80940335     0.08820
C1252       C  0.51806565  0.36418764  0.84983437     0.05850
C1253       C  0.52103610  0.33198239  0.85951927    -0.10300
C1254       C  0.51537756  0.30746923  0.83778614     0.03350
C1255       C  0.50793339  0.31566871  0.80631914    -0.08820
C1256       C  0.50520273  0.34744072  0.79657148     0.05850
C1257       C  0.51045766  0.37187241  0.81823346    -0.08240
H1258       H  0.52669556  0.32606750  0.88396822     0.11440
H1259       H  0.50446900  0.29713624  0.78888959     0.08970
H1260       H  0.50761525  0.39656507  0.81085475     0.08820
C1261       C  0.51742085  0.16752946  0.64740840     0.05850
C1262       C  0.52290267  0.16131287  0.67996925    -0.10300
C1263       C  0.52693307  0.18691749  0.70085542     0.03350
C1264       C  0.52465072  0.21814023  0.68919152    -0.08820
C1265       C  0.51755691  0.22456499  0.65731052     0.05850
C1266       C  0.51481503  0.19918003  0.63615235    -0.08240
H1267       H  0.52483573  0.13696582  0.68871355     0.11440
H1268       H  0.52784369  0.23785042  0.70538487     0.08970
H1269       H  0.51015278  0.20398801  0.61123977     0.08820
C1270       C  0.51274826  0.36518856  0.65049247     0.05850
C1271       C  0.51600143  0.37565449  0.68193844    -0.10300
C1272       C  0.51119293  0.35428367  0.70751018     0.03350
C1273       C  0.50401431  0.32229340  0.70123656    -0.08820
C1274       C  0.50179408  0.31144327  0.66993186     0.05850
C1275       C  0.50623157  0.33298511  0.64435126    -0.08240
H1276       H  0.52136835  0.40046942  0.68651694     0.11440
H1277       H  0.50124943  0.30532867  0.72089414     0.08970
H1278       H  0.50388052  0.32496574  0.62002036     0.08820
O1279       O  0.96171617  0.42370678  0.49978394    -0.77410
O1280       O  0.96040820  0.10628548  0.49804366    -0.78960
O1281       O  0.91993297  0.01552158  0.55254133    -0.75980
O1282       O  0.92450001  0.01630102  0.94869417    -0.74360
O1283       O  0.96379630  0.01643567  0.90939447    -0.76160
O1284       O  0.95780894  0.01507465  0.59093543    -0.77090
O1285       O  0.92174968  0.06754515  0.49844560    -0.78410
O1286       O  0.92300688  0.46238494  0.50018011    -0.78700
Eu1287     Eu  0.94766922  0.01492985  0.50028900     2.39200
O1288       O  0.98284482  0.04696283  0.96795870    -0.86210
O1289       O  0.98144441  0.48164155  0.53120015    -0.89820
C1290       C  0.93235439  0.43307464  0.50029121     1.04870
C1291       C  0.93117869  0.09685595  0.49770571     1.04690
C1292       C  0.92865744  0.01550597  0.58174815     1.04640
C1293       C  0.93439314  0.01705983  0.91923300     1.02490
H1294       H  0.96581190  0.06074362  0.54549201     0.32240
O1295       O  0.97938906  0.04736529  0.53224541    -0.98600
H1296       H  0.97104790  0.46947218  0.95426355     0.32280
O1297       O  0.98411394  0.48261998  0.96742624    -1.01140
O1298       O  0.56488715  0.10624662  0.49742094    -0.78370
O1299       O  0.56695233  0.42474144  0.49798526    -0.77910
O1300       O  0.51185054  0.06760786  0.59111948    -0.76340
O1301       O  0.51539183  0.06770737  0.90881543    -0.79680
O1302       O  0.51849429  0.46424523  0.90695414    -0.77540
O1303       O  0.51298340  0.46179750  0.58964245    -0.76190
O1304       O  0.60298135  0.01649465  0.55105358    -0.77710
O1305       O  0.60582833  0.01617131  0.94545839    -0.79630
O1306       O  0.56375088  0.01651440  0.59046116    -0.76370
O1307       O  0.56739103  0.01600901  0.90769304    -0.79050
O1308       O  0.51292703  0.10615302  0.55178527    -0.74780
O1309       O  0.51392286  0.42364615  0.55081085    -0.74810
O1310       O  0.51902444  0.42472379  0.94527078    -0.74460
O1311       O  0.51489961  0.10653509  0.94694261    -0.77950
O1312       O  0.60358782  0.06754871  0.49736168    -0.77380
O1313       O  0.60553622  0.46360798  0.49793711    -0.75710
Eu1314     Eu  0.51260236  0.07987343  0.49930221     2.39770
Eu1315     Eu  0.51432626  0.45078912  0.49872712     2.39570
Eu1316     Eu  0.51129031  0.01541073  0.56518580     2.38400
Eu1317     Eu  0.51531631  0.01540312  0.93563122     2.39880
Eu1318     Eu  0.57722613  0.01500763  0.49904678     2.39790
O1319       O  0.54937402  0.48341698  0.96473848    -0.90120
O1320       O  0.54439592  0.04748012  0.53165127    -0.89010
C1321       C  0.59418736  0.09687475  0.49682750     1.05050
C1322       C  0.59623979  0.43425413  0.49777336     1.03770
C1323       C  0.51263709  0.09688045  0.58131753     1.03160
C1324       C  0.51516210  0.09700948  0.91779403     1.05170
C1325       C  0.51935751  0.43469210  0.91606819     1.04090
C1326       C  0.51362020  0.43265231  0.58010422     1.02930
C1327       C  0.59325423  0.01697710  0.58057612     1.02990
C1328       C  0.59659037  0.01641749  0.91632450     1.05610
H1329       H  0.55921112  0.46970399  0.54408892     0.32980
O1330       O  0.54610668  0.48304212  0.53085402    -1.02280
H1331       H  0.56063021  0.06111737  0.95306864     0.35030
O1332       O  0.54730250  0.04786108  0.96695363    -1.04850
C1333       C  0.51424932  0.40818315  0.60410510    -0.10550
C1334       C  0.51433446  0.38803764  0.62477080    -0.12110
C1335       C  0.49507640  0.27723835  0.66583091    -0.13710
C1336       C  0.51335159  0.25824814  0.64720650    -0.28880
H1337       H  0.98049858  0.26684458  0.68938556     0.15310
H1338       H  0.52925213  0.26821142  0.62869708     0.15890
C1339       C  0.51351754  0.12110154  0.60531752    -0.10550
C1340       C  0.51495213  0.14169783  0.62515408    -0.12110
C1341       C  0.49481639  0.35339109  0.76389225    -0.13710
C1342       C  0.51504479  0.36439377  0.74090678    -0.28880
H1343       H  0.47355693  0.34060792  0.75700796     0.15310
H1344       H  0.53676633  0.37677640  0.74703701     0.15890
C1345       C  0.52045133  0.38942524  0.87269827    -0.10550
C1346       C  0.52053197  0.41064887  0.89191551    -0.12110
C1347       C  0.51531603  0.16619709  0.75578097    -0.13710
C1348       C  0.53371852  0.18330264  0.73510702    -0.28880
H1349       H  0.49878831  0.14843732  0.74733493     0.15310
H1350       H  0.54951330  0.20113463  0.74481201     0.15890
C1351       C  0.49745687  0.25202058  0.83434257    -0.13710
C1352       C  0.51772117  0.27312192  0.84678728    -0.28880
H1353       H  0.47716847  0.26092410  0.82136288     0.15310
H1354       H  0.53820530  0.26489834  0.85988167     0.15890
C1355       C  0.51517141  0.12097182  0.89321456    -0.10550
C1356       C  0.51472684  0.14066102  0.87209918    -0.12110
C1357       C  0.90374785  0.01616608  0.60598266    -0.10550
C1358       C  0.88315849  0.01633989  0.62672042    -0.12110
C1359       C  0.75237560  0.01654622  0.65428469    -0.13710
C1360       C  0.77225594  0.99968360  0.67274582    -0.28880
H1361       H  0.76180886  0.03203953  0.63528282     0.15310
H1362       H  0.76387276  0.48492327  0.69125039     0.15890
C1363       C  0.63761802  0.01900714  0.62424895    -0.10550
C1364       C  0.61731729  0.01814487  0.60437357    -0.12110
C1365       C  0.68255073  0.99760431  0.75843997    -0.13710
C1366       C  0.66626965  0.01713445  0.73908857    -0.28880
H1367       H  0.69891612  0.98051593  0.74740932     0.15310
H1368       H  0.64946797  0.03448504  0.74880771     0.15890
C1369       C  0.64105743  0.01663871  0.87036761    -0.10550
C1370       C  0.62069625  0.01717350  0.89130180    -0.12110
C1371       C  0.85203360  0.99641921  0.76678533    -0.13710
C1372       C  0.86267255  0.01657368  0.74373032    -0.28880
H1373       H  0.83847920  0.97554986  0.76002581     0.15310
H1374       H  0.87575861  0.03795396  0.74976644     0.15890
C1375       C  0.77498571  0.02043358  0.85367558    -0.13710
C1376       C  0.75557228  0.99607129  0.84716307    -0.28880
H1377       H  0.76526839  0.04366392  0.85992371     0.15310
H1378       H  0.76777285  0.47386378  0.83475222     0.15890
C1379       C  0.89059177  0.01954380  0.87549502    -0.10550
C1380       C  0.91074232  0.01872144  0.89534923    -0.12110
C1381       C  0.64145873  0.39037901  0.49816852    -0.10550
C1382       C  0.62059597  0.41018339  0.49762990    -0.12110
C1383       C  0.67194196  0.25186536  0.02055423    -0.13710
C1384       C  0.66305293  0.27235460  0.99759597    -0.28880
H1385       H  0.65317671  0.26623684  0.47529842     0.15310
H1386       H  0.65293587  0.26372986  0.97572997     0.15890
C1387       C  0.63806314  0.14207506  0.49492941    -0.10550
C1388       C  0.61826218  0.12120130  0.49539052    -0.12110
C1389       C  0.75199183  0.16688710  0.01967431    -0.13710
C1390       C  0.77245612  0.15952509  0.99563801    -0.28880
H1391       H  0.75535349  0.18923434  0.53940092     0.15310
H1392       H  0.76376336  0.15186481  0.97277678     0.15890
C1393       C  0.90713430  0.12105478  0.49667197    -0.10550
C1394       C  0.88665788  0.14119638  0.49684549    -0.12110
C1395       C  0.77605328  0.35932969  0.99643313    -0.13710
C1396       C  0.75382688  0.34349834  0.01414962    -0.28880
H1397       H  0.76901021  0.37700813  0.97883346     0.15310
H1398       H  0.76616061  0.38277404  0.51361586     0.15890
C1399       C  0.84156584  0.25141480  0.01347262    -0.13710
C1400       C  0.85949516  0.27306041  0.99723060    -0.28880
H1401       H  0.82946424  0.26207413  0.53535212     0.15310
H1402       H  0.87877011  0.26533756  0.98118928     0.15890
C1403       C  0.90806346  0.40887315  0.50052807    -0.10550
C1404       C  0.88816697  0.38809353  0.49977828    -0.12110
C1405       C  0.86266220  0.86578576  0.99933451     0.05850
C1406       C  0.86861696  0.83309585  0.99431098    -0.10300
C1407       C  0.85394239  0.80453285  0.49997803     0.03350
C1408       C  0.82187326  0.81029826  0.49335178    -0.08820
C1409       C  0.80993303  0.84124799  0.49050449     0.05850
C1410       C  0.83105874  0.87723619  0.00129707    -0.08240
H1411       H  0.89292277  0.82431903  0.99222115     0.11440
H1412       H  0.80587884  0.79029078  0.49013817     0.08970
H1413       H  0.82646214  0.90239032  0.00507691     0.08820
C1414       C  0.86532390  0.66561703  0.00054901     0.05850
C1415       C  0.87455507  0.69784792  0.00243787    -0.10300
C1416       C  0.84340545  0.71618701  0.51019819     0.03350
C1417       C  0.81255344  0.70452534  0.50597845    -0.08820
C1418       C  0.80748195  0.67296366  0.49680337     0.05850
C1419       C  0.83327391  0.65768327  0.99565349    -0.08240
H1420       H  0.89925495  0.70392722  0.00637975     0.11440
H1421       H  0.79228236  0.72036122  0.50922563     0.08970
H1422       H  0.82609395  0.63289093  0.99417848     0.08820
C1423       C  0.66701684  0.66414806  0.00188355     0.05850
C1424       C  0.69895544  0.65418441  0.00323659    -0.10300
C1425       C  0.72120059  0.67430026  0.51209416     0.03350
C1426       C  0.71558468  0.70685902  0.51562460    -0.08880
C1427       C  0.68537742  0.71986156  0.51113821     0.05850
C1428       C  0.65893970  0.69636354  0.00615438    -0.08240
H1429       H  0.70512038  0.62929382  0.99998415     0.11440
H1430       H  0.73518906  0.72239604  0.52156554     0.08970
H1431       H  0.63421308  0.70392871  0.00561733     0.08820
C1432       C  0.66365821  0.86347193  0.99754987     0.05850
C1433       C  0.69562540  0.87022167  0.00452615    -0.10300
C1434       C  0.71948317  0.85045420  0.49811499     0.03350
C1435       C  0.71044364  0.81813822  0.49652572    -0.08820
C1436       C  0.67812288  0.80918349  0.49529321     0.05850
C1437       C  0.65339629  0.83167377  0.99477626    -0.08240
H1438       H  0.70345492  0.89464727  0.00696166     0.11440
H1439       H  0.72862571  0.79974201  0.49667987     0.08970
H1440       H  0.62868806  0.82648972  0.98951955     0.08820
C1441       C  0.86567561  0.51634362  0.35010113     0.05850
C1442       C  0.83307495  0.51699159  0.35920414    -0.10300
C1443       C  0.80984249  0.51562882  0.33589474     0.03350
C1444       C  0.81965516  0.51542871  0.30351987    -0.08820
C1445       C  0.85212795  0.51543067  0.29410959     0.05850
C1446       C  0.87513417  0.51512343  0.31764318    -0.08240
H1447       H  0.82586038  0.51760697  0.38427121     0.11440
H1448       H  0.80174438  0.51487302  0.28541384     0.08970
H1449       H  0.90026857  0.51442007  0.31073122     0.08820
C1450       C  0.66732228  0.51148147  0.34552893     0.05850
C1451       C  0.70019679  0.50799194  0.35090205    -0.10300
C1452       C  0.72118819  0.49996546  0.32539352     0.03350
C1453       C  0.70903204  0.49553654  0.29502915    -0.08820
C1454       C  0.67675057  0.50034754  0.28929975     0.05850
C1455       C  0.65578891  0.50847143  0.31455462    -0.08240
H1456       H  0.70910337  0.51040148  0.37477308     0.11440
H1457       H  0.72510446  0.48930704  0.27525778     0.08970
H1458       H  0.63056655  0.51148125  0.31029355     0.08820
C1459       C  0.66267409  0.51764569  0.14828922     0.05850
C1460       C  0.69555868  0.52197975  0.14189022    -0.10300
C1461       C  0.71585770  0.52804066  0.16711255     0.03350
C1462       C  0.70324788  0.52922298  0.19839100    -0.08820
C1463       C  0.67079501  0.52372203  0.20498958     0.05850
C1464       C  0.65036496  0.51815177  0.17987590    -0.08240
H1465       H  0.70504655  0.52174963  0.11752269     0.11440
H1466       H  0.71897648  0.53378867  0.21794348     0.08970
H1467       H  0.62509249  0.51440018  0.18485875     0.08820
C1468       C  0.86201288  0.51039503  0.15120177     0.05850
C1469       C  0.86749920  0.51689479  0.18349675    -0.10300
C1470       C  0.84150803  0.52220055  0.20470484     0.03350
C1471       C  0.81049992  0.52060356  0.19356630    -0.08820
C1472       C  0.80465923  0.51405914  0.16152615     0.05850
C1473       C  0.83058571  0.50834341  0.14042598    -0.08240
H1474       H  0.89167445  0.51896777  0.19172591     0.11440
H1475       H  0.79057385  0.52420644  0.21029325     0.08970
H1476       H  0.82638243  0.50353219  0.11552636     0.08820
C1477       C  0.51188486  0.66608966  0.34692411     0.05850
C1478       C  0.51722589  0.69875823  0.35239969    -0.10300
C1479       C  0.52093989  0.71992284  0.32631013     0.03350
C1480       C  0.51895826  0.70834970  0.29535128    -0.08820
C1481       C  0.51355569  0.67593927  0.28966980     0.05850
C1482       C  0.50941204  0.65486173  0.31560213    -0.08240
H1483       H  0.51964362  0.70735169  0.37651687     0.11440
H1484       H  0.52157353  0.72492426  0.27533752     0.08970
H1485       H  0.50557276  0.62968342  0.31140616     0.08820
C1486       C  0.51149714  0.86524302  0.35066272     0.05850
C1487       C  0.51081487  0.83290164  0.35980099    -0.10300
C1488       C  0.51158765  0.80920283  0.33656614     0.03350
C1489       C  0.51208666  0.81823135  0.30410996    -0.08820
C1490       C  0.51284074  0.85054067  0.29451090     0.05850
C1491       C  0.51215324  0.87406662  0.31811165    -0.08240
H1492       H  0.51017071  0.82619944  0.38489841     0.11440
H1493       H  0.51071423  0.79983228  0.28624541     0.08970
H1494       H  0.51241122  0.89908094  0.31120183     0.08820
C1495       C  0.51575724  0.66366690  0.14807168     0.05850
C1496       C  0.52003629  0.65685573  0.18058873    -0.10300
C1497       C  0.52768532  0.68159327  0.20119526     0.03350
C1498       C  0.53052203  0.71280479  0.18933193    -0.08820
C1499       C  0.52496682  0.71989846  0.15734044     0.05850
C1500       C  0.51759259  0.69528490  0.13652052    -0.08240
H1501       H  0.51891265  0.63245256  0.18944079     0.11440
H1502       H  0.53688098  0.73186861  0.20526471     0.08970
H1503       H  0.51448522  0.70052587  0.11139927     0.08820
C1504       C  0.51053084  0.86297517  0.15116334     0.05850
C1505       C  0.51684852  0.86681549  0.18382317    -0.10300
C1506       C  0.51900463  0.83973283  0.20388851     0.03350
C1507       C  0.51452479  0.80942220  0.19110950    -0.08820
C1508       C  0.50763280  0.80556374  0.15893679     0.05850
C1509       C  0.50547518  0.83236179  0.13896775    -0.08240
H1510       H  0.52104412  0.89038889  0.19320530     0.11440
H1511       H  0.51626261  0.78848398  0.20644083     0.08970
H1512       H  0.50068911  0.82934260  0.11388607     0.08820
O1513       O  0.96348072  0.92287879  0.00088455    -0.77410
O1514       O  0.96242601  0.60537961  0.00142062    -0.78960
O1515       O  0.92483026  0.51099158  0.05440307    -0.75980
O1516       O  0.92405465  0.51533810  0.44706484    -0.74360
O1517       O  0.96327893  0.51506391  0.40767088    -0.76160
O1518       O  0.96341866  0.51102860  0.09202419    -0.77090
O1519       O  0.92409517  0.56629812  0.00227701    -0.78410
O1520       O  0.92444297  0.96130031  0.00158500    -0.78700
Eu1521     Eu  0.95110443  0.51403422  0.00107895     2.39200
O1522       O  0.98288438  0.54670943  0.46566869    -0.86210
O1523       O  0.98239227  0.98140091  0.03230964    -0.89820
C1524       C  0.93405664  0.93201851  0.00151632     1.04870
C1525       C  0.93319435  0.59573849  0.00215841     1.04690
C1526       C  0.93412036  0.51019216  0.08348240     1.04640
C1527       C  0.93381808  0.51548146  0.41758344     1.02490
H1528       H  0.96937162  0.55928868  0.04691445     0.32240
O1529       O  0.98281094  0.54644725  0.03299369    -0.98600
H1530       H  0.96740154  0.96900549  0.45475726     0.32280
O1531       O  0.98043377  0.98228410  0.46783962    -1.01140
O1532       O  0.56830832  0.60602227  0.99883931    -0.78370
O1533       O  0.56731164  0.92467292  0.99881086    -0.77910
O1534       O  0.51451537  0.56403636  0.09105069    -0.76340
O1535       O  0.51489353  0.56927517  0.40786015    -0.79680
O1536       O  0.51345906  0.96228467  0.41012813    -0.77540
O1537       O  0.51229167  0.96385284  0.09283629    -0.76190
O1538       O  0.60740764  0.51420918  0.04858679    -0.77710
O1539       O  0.60779967  0.51672707  0.44628119    -0.79630
O1540       O  0.56848380  0.51283624  0.08830641    -0.76370
O1541       O  0.57035781  0.51711754  0.40750654    -0.79050
O1542       O  0.51463001  0.60378438  0.05292186    -0.74780
O1543       O  0.51305369  0.92493034  0.05479974    -0.74810
O1544       O  0.51260370  0.92349137  0.44925381    -0.74460
O1545       O  0.51377423  0.60729229  0.44681443    -0.77950
O1546       O  0.60726599  0.56760568  0.99703295    -0.77380
O1547       O  0.60609317  0.96331950  0.99749088    -0.75710
Eu1548     Eu  0.51609538  0.57940779  0.99994723     2.39770
Eu1549     Eu  0.51460408  0.95071162  0.00131148     2.39570
Eu1550     Eu  0.51608159  0.51255660  0.06359027     2.38400
Eu1551     Eu  0.51683926  0.51617532  0.43361427     2.39880
Eu1552     Eu  0.58132787  0.51521336  0.99681465     2.39790
O1553       O  0.54504989  0.98216149  0.46811252    -0.90120
O1554       O  0.54860738  0.54631066  0.03100718    -0.89010
C1555       C  0.59765781  0.59680013  0.99775644     1.05050
C1556       C  0.59666714  0.93402806  0.99745560     1.03770
C1557       C  0.51401143  0.59357272  0.08207709     1.03160
C1558       C  0.51373607  0.59842108  0.41747894     1.05170
C1559       C  0.51302301  0.93296791  0.41979418     1.04090
C1560       C  0.51227128  0.93449235  0.08404303     1.02930
C1561       C  0.59784716  0.51340283  0.07814645     1.02990
C1562       C  0.59939535  0.51709934  0.41693863     1.05610
H1563       H  0.55984071  0.96984996  0.04611272     0.32980
O1564       O  0.54666087  0.98310008  0.03282804    -1.02280
H1565       H  0.56154941  0.56241017  0.45244547     0.35030
O1566       O  0.54809161  0.54874418  0.46582328    -1.04850
C1567       C  0.51135283  0.91053559  0.10894960    -0.10550
C1568       C  0.51072541  0.88986800  0.12932047    -0.12110
C1569       C  0.50361302  0.77290232  0.14702353    -0.13710
C1570       C  0.52885438  0.75325393  0.14669258    -0.28880
H1571       H  0.98093788  0.76568335  0.19030052     0.15310
H1572       H  0.55246295  0.76354389  0.14918693     0.15890
C1573       C  0.51264001  0.61718598  0.10646086    -0.10550
C1574       C  0.51270304  0.63802332  0.12597586    -0.12110
C1575       C  0.51234113  0.85926551  0.25986591    -0.13710
C1576       C  0.52732545  0.84084411  0.23796812    -0.28880
H1577       H  0.49733363  0.87891479  0.25231159     0.15310
H1578       H  0.54247202  0.82158297  0.24626731     0.15890
C1579       C  0.51197203  0.88928400  0.37491615    -0.10550
C1580       C  0.51260695  0.90901050  0.39561778    -0.12110
C1581       C  0.51268332  0.66499376  0.25625308    -0.13710
C1582       C  0.53462391  0.67628875  0.23499389    -0.28880
H1583       H  0.49179507  0.65222817  0.24845084     0.15310
H1584       H  0.55492151  0.68937707  0.24379429     0.15890
C1585       C  0.52891219  0.75402717  0.32919362    -0.13710
C1586       C  0.51067859  0.77482870  0.34565466    -0.28880
H1587       H  0.54636462  0.76340543  0.31174547     0.15310
H1588       H  0.49288788  0.76644163  0.36321711     0.15890
C1589       C  0.51222995  0.62310089  0.39356587    -0.10550
C1590       C  0.51135661  0.64343055  0.37300769    -0.12110
C1591       C  0.90973311  0.50858039  0.10834904    -0.10550
C1592       C  0.88846260  0.50839137  0.12846395    -0.12110
C1593       C  0.75016127  0.53480627  0.16237086    -0.13710
C1594       C  0.77114129  0.51309606  0.15106415    -0.28880
H1595       H  0.75914673  0.55496419  0.17552886     0.15310
H1596       H  0.76287852  0.98339019  0.18740025     0.15890
C1597       C  0.64112218  0.51439409  0.12249142    -0.10550
C1598       C  0.62183011  0.51333937  0.10179829    -0.12110
C1599       C  0.66642754  0.49692035  0.25624771    -0.13710
C1600       C  0.65958400  0.52281164  0.23866589    -0.28880
H1601       H  0.67425783  0.47547348  0.24388938     0.15310
H1602       H  0.65522081  0.54548133  0.25037828     0.15890
C1603       C  0.64483492  0.51582185  0.37183322    -0.10550
C1604       C  0.62444850  0.51720469  0.39275485    -0.12110
C1605       C  0.86130773  0.51411792  0.25957982    -0.13710
C1606       C  0.84468368  0.53117493  0.23842850    -0.28880
H1607       H  0.87879116  0.49661304  0.25149575     0.15310
H1608       H  0.82745516  0.54851367  0.24751734     0.15890
C1609       C  0.77515108  0.51458911  0.34456592    -0.13710
C1610       C  0.75594246  0.49521518  0.32843795    -0.28880
H1611       H  0.76529142  0.53169859  0.36147022     0.15310
H1612       H  0.76526018  0.97244745  0.34347096     0.15890
C1613       C  0.88956560  0.51635698  0.37406228    -0.10550
C1614       C  0.90983769  0.51605195  0.39387236    -0.12110
C1615       C  0.64075824  0.88898962  0.99568494    -0.10550
C1616       C  0.62084736  0.90978046  0.99596401    -0.12110
C1617       C  0.68246074  0.75466052  0.51585910    -0.13710
C1618       C  0.66927053  0.77485078  0.49495858    -0.28880
H1619       H  0.68729167  0.76115849  0.04130894     0.15310
H1620       H  0.65438846  0.76602540  0.47619541     0.15890
C1621       C  0.64229475  0.64091094  0.99843815    -0.10550
C1622       C  0.62169709  0.62099949  0.99748917    -0.12110
C1623       C  0.75371500  0.66280959  0.51701244    -0.13710
C1624       C  0.77460118  0.66209483  0.49220027    -0.28880
H1625       H  0.76596297  0.65989784  0.03349792     0.15310
H1626       H  0.76612728  0.66164560  0.46793680     0.15890
C1627       C  0.90885318  0.61988970  0.00273318    -0.10550
C1628       C  0.88892070  0.64067878  0.00238846    -0.12110
C1629       C  0.77599540  0.84402252  0.48208259    -0.13710
C1630       C  0.75382205  0.85923576  0.50007399    -0.28880
H1631       H  0.76791138  0.82740169  0.46428452     0.15310
H1632       H  0.76002387  0.83141563  0.03443658     0.15890
C1633       C  0.84632403  0.74994247  0.51927294    -0.13710
C1634       C  0.86485633  0.77096108  0.50279452    -0.28880
H1635       H  0.87597067  0.76402336  0.01967535     0.15310
H1636       H  0.88423382  0.76283047  0.48710131     0.15890
C1637       C  0.90991020  0.90761900  0.00176271    -0.10550
C1638       C  0.88885798  0.88796659  0.00115720    -0.12110
C1639       C  0.86336841  0.86189198  0.49922197     0.05850
C1640       C  0.87488519  0.83043492  0.50211009    -0.10300
C1641       C  0.84295231  0.81213635  0.99040180     0.03350
C1642       C  0.81174354  0.82379946  0.99248380    -0.08820
C1643       C  0.80542602  0.85605127  0.99860354     0.05850
C1644       C  0.83066591  0.86735351  0.49387122    -0.08240
H1645       H  0.89995287  0.82615062  0.50620100     0.11440
H1646       H  0.79204129  0.80752436  0.98899290     0.08970
H1647       H  0.82175346  0.89148585  0.49122909     0.08820
C1648       C  0.86441103  0.66376210  0.49731507     0.05850
C1649       C  0.86960376  0.69570603  0.50574366    -0.10300
C1650       C  0.85199649  0.72221820  0.99832390     0.03350
C1651       C  0.82007933  0.71385557  0.99330933    -0.08820
C1652       C  0.81064495  0.68194844  0.99201784     0.05850
C1653       C  0.83347822  0.65260629  0.49221873    -0.08240
H1654       H  0.89357514  0.70423044  0.50965936     0.11440
H1655       H  0.80206013  0.73227174  0.99122248     0.08970
H1656       H  0.82958206  0.62798471  0.48564259     0.08820
C1657       C  0.66526049  0.66628095  0.50166051     0.05850
C1658       C  0.69611047  0.65389071  0.50508680    -0.10300
C1659       C  0.72285450  0.67643762  0.00921933     0.03350
C1660       C  0.71458531  0.70834914  0.01443168    -0.08880
C1661       C  0.68280044  0.71843332  0.01285992     0.05850
C1662       C  0.65987101  0.69949246  0.50398312    -0.08240
H1663       H  0.70038578  0.62844057  0.50329515     0.11440
H1664       H  0.73307968  0.72548449  0.01968732     0.08970
H1665       H  0.63605778  0.70911821  0.50153532     0.08820
C1666       C  0.66334208  0.86516308  0.49724309     0.05850
C1667       C  0.69560562  0.87388138  0.49927257    -0.10300
C1668       C  0.71699303  0.84502723  0.00963220     0.03350
C1669       C  0.70633129  0.81361086  0.00740633    -0.08820
C1670       C  0.67464403  0.80656998  0.00032143     0.05850
C1671       C  0.65468923  0.83293857  0.49481948    -0.08240
H1672       H  0.70211975  0.89880811  0.50123297     0.11440
H1673       H  0.72318292  0.79430792  0.01078465     0.08970
H1674       H  0.62974156  0.82632125  0.49358218     0.08820
C1675       C  0.86632139  0.51905269  0.85274637     0.05850
C1676       C  0.83433152  0.52270325  0.86313065    -0.10300
C1677       C  0.80986422  0.51842006  0.84163806     0.03350
C1678       C  0.81761036  0.51161684  0.80966760    -0.08820
C1679       C  0.84930609  0.50848513  0.79899792     0.05850
C1680       C  0.87391068  0.51226982  0.82055368    -0.08240
H1681       H  0.82848258  0.52746915  0.88801751     0.11440
H1682       H  0.79867101  0.50835142  0.79290467     0.08970
H1683       H  0.89853408  0.50881316  0.81265882     0.08820
C1684       C  0.66819131  0.51419429  0.84541425     0.05850
C1685       C  0.69946418  0.51039844  0.85597439    -0.10300
C1686       C  0.72377726  0.50138988  0.83433424     0.03350
C1687       C  0.71686213  0.49655182  0.80238709    -0.08820
C1688       C  0.68618381  0.50171836  0.79125577     0.05850
C1689       C  0.66158438  0.51064353  0.81287580    -0.08240
H1690       H  0.70458002  0.51310006  0.88101929     0.11440
H1691       H  0.73588061  0.48941545  0.78578615     0.08970
H1692       H  0.63743114  0.51352547  0.80475794     0.08820
C1693       C  0.66306357  0.51934746  0.64723972     0.05850
C1694       C  0.69580395  0.51836676  0.63837170    -0.10300
C1695       C  0.71895760  0.51714719  0.66194647     0.03350
C1696       C  0.70877792  0.51792998  0.69420608    -0.08820
C1697       C  0.67626317  0.51842706  0.70327235     0.05850
C1698       C  0.65342222  0.51970053  0.67965727    -0.08240
H1699       H  0.70316356  0.51803659  0.61334249     0.11440
H1700       H  0.72631221  0.51869956  0.71267061     0.08970
H1701       H  0.62825268  0.52017800  0.68647130     0.08820
C1702       C  0.86241273  0.51567818  0.65228244     0.05850
C1703       C  0.87383022  0.51907631  0.68324532    -0.10300
C1704       C  0.85308988  0.51539852  0.70982727     0.03350
C1705       C  0.82067476  0.50921014  0.70515131    -0.08820
C1706       C  0.80860812  0.50700479  0.67443848     0.05850
C1707       C  0.82963759  0.51024919  0.64775731    -0.08240
H1708       H  0.89896116  0.52362613  0.68667835     0.11440
H1709       H  0.80440420  0.50696804  0.72571480     0.08970
H1710       H  0.82082528  0.50763270  0.62387558     0.08820
C1711       C  0.51177951  0.66617622  0.84767214     0.05850
C1712       C  0.51707717  0.69899645  0.85241474    -0.10300
C1713       C  0.52079545  0.71962884  0.82586762     0.03350
C1714       C  0.51891898  0.70731651  0.79515191    -0.08820
C1715       C  0.51332163  0.67481103  0.79019408     0.05850
C1716       C  0.50921730  0.65428981  0.81658967    -0.08240
H1717       H  0.51945463  0.70811249  0.87633691     0.11440
H1718       H  0.52164755  0.72337510  0.77473086     0.08970
H1719       H  0.50528668  0.62903415  0.81293834     0.08820
C1720       C  0.51213563  0.86539561  0.85090810     0.05850
C1721       C  0.51165775  0.83298182  0.85994933    -0.10300
C1722       C  0.51202069  0.80931631  0.83661552     0.03350
C1723       C  0.51186021  0.81851614  0.80422218    -0.08820
C1724       C  0.51254113  0.85084579  0.79474753     0.05850
C1725       C  0.51225273  0.87429643  0.81839412    -0.08240
H1726       H  0.51147804  0.82620832  0.88501814     0.11440
H1727       H  0.51009196  0.80025386  0.78626346     0.08970
H1728       H  0.51244364  0.89932506  0.81153776     0.08820
C1729       C  0.51433455  0.66425072  0.64846529     0.05850
C1730       C  0.51885900  0.65602726  0.68067746    -0.10300
C1731       C  0.52777388  0.67964502  0.70207499     0.03350
C1732       C  0.53178789  0.71108560  0.69123397    -0.08820
C1733       C  0.52602095  0.71959731  0.65962105     0.05850
C1734       C  0.51716103  0.69617828  0.63807939    -0.08240
H1735       H  0.51689730  0.63138413  0.68865854     0.11440
H1736       H  0.53907418  0.72928756  0.70774549     0.08970
H1737       H  0.51383661  0.70251693  0.61323025     0.08820
C1738       C  0.50867701  0.86307483  0.65169615     0.05850
C1739       C  0.51511140  0.86708662  0.68429390    -0.10300
C1740       C  0.51860058  0.84006723  0.70418365     0.03350
C1741       C  0.51546145  0.80965115  0.69125030    -0.08820
C1742       C  0.50850163  0.80558470  0.65908854     0.05850
C1743       C  0.50474714  0.83234188  0.63938093    -0.08240
H1744       H  0.51842808  0.89078441  0.69373538     0.11440
H1745       H  0.51827031  0.78876260  0.70646840     0.08970
H1746       H  0.49992304  0.82922992  0.61431797     0.08820
O1747       O  0.95948664  0.92406932  0.50167010    -0.77410
O1748       O  0.96336132  0.60594493  0.49674551    -0.78960
O1749       O  0.92197567  0.51508363  0.55126023    -0.75980
O1750       O  0.92526544  0.51641689  0.94910305    -0.74360
O1751       O  0.96420522  0.51712050  0.90941401    -0.76160
O1752       O  0.95981201  0.51411711  0.58966375    -0.77090
O1753       O  0.92444298  0.56747455  0.49736640    -0.78410
O1754       O  0.92075194  0.96268802  0.50104250    -0.78700
Eu1755     Eu  0.94980454  0.51450599  0.49887830     2.39200
O1756       O  0.98328092  0.54728912  0.96803056    -0.86210
O1757       O  0.97925412  0.98249625  0.53315869    -0.89820
C1758       C  0.93006428  0.93333998  0.50150744     1.04870
C1759       C  0.93412188  0.59671458  0.49665900     1.04690
C1760       C  0.93063838  0.51484146  0.58051068     1.04640
C1761       C  0.93487599  0.51740273  0.91953802     1.02490
H1762       H  0.96822420  0.56002176  0.54399765     0.32240
O1763       O  0.98173021  0.54662632  0.53071722    -0.98600
H1764       H  0.96974017  0.96873991  0.95464701     0.32280
O1765       O  0.98281155  0.98193687  0.96777340    -1.01140
O1766       O  0.56605789  0.60770009  0.49827043    -0.78370
O1767       O  0.56458543  0.92378082  0.50045919    -0.77910
O1768       O  0.51088464  0.56625754  0.59044477    -0.76340
O1769       O  0.51457702  0.56992458  0.90887479    -0.79680
O1770       O  0.51506414  0.96297176  0.90992762    -0.77540
O1771       O  0.50993497  0.96370477  0.59312670    -0.76190
O1772       O  0.60455434  0.51689951  0.55057753    -0.77710
O1773       O  0.60738639  0.51729695  0.94334109    -0.79630
O1774       O  0.56488999  0.51620374  0.58956298    -0.76370
O1775       O  0.56873476  0.51852638  0.90577666    -0.79050
O1776       O  0.51208682  0.60536979  0.55166819    -0.74780
O1777       O  0.51013710  0.92454314  0.55531899    -0.74810
O1778       O  0.51468961  0.92423969  0.94907598    -0.74460
O1779       O  0.51447817  0.60748985  0.94823323    -0.77950
O1780       O  0.60514658  0.56946221  0.49797629    -0.77380
O1781       O  0.60329027  0.96257487  0.49877113    -0.75710
Eu1782     Eu  0.51460688  0.58010191  0.49890309     2.39770
Eu1783     Eu  0.51190376  0.94981294  0.50162795     2.39570
Eu1784     Eu  0.51264344  0.51463562  0.56367484     2.38400
Eu1785     Eu  0.51663021  0.51644814  0.93386561     2.39880
Eu1786     Eu  0.57948937  0.51623402  0.49847685     2.39790
O1787       O  0.54744356  0.98291022  0.96766010    -0.90120
O1788       O  0.54614375  0.54774343  0.53147027    -0.89010
C1789       C  0.59544288  0.59874820  0.49790411     1.05050
C1790       C  0.59390600  0.93326570  0.49936002     1.03770
C1791       C  0.51084876  0.59563042  0.58101278     1.03160
C1792       C  0.51384746  0.59897534  0.91879345     1.05170
C1793       C  0.51472578  0.93364105  0.91961619     1.04090
C1794       C  0.50955030  0.93430764  0.58448919     1.02930
C1795       C  0.59449750  0.51696958  0.57996002     1.02990
C1796       C  0.59800102  0.51847867  0.91430098     1.05610
H1797       H  0.55728946  0.96947474  0.54613756     0.32980
O1798       O  0.54417712  0.98265080  0.53274512    -1.02280
H1799       H  0.56188965  0.56227218  0.95230623     0.35030
O1800       O  0.54879917  0.54837326  0.96579216    -1.04850
C1801       C  0.50850360  0.91053160  0.60950911    -0.10550
C1802       C  0.50807494  0.88994677  0.62992717    -0.12110
C1803       C  0.50612062  0.77283219  0.64684657    -0.13710
C1804       C  0.53102596  0.75315499  0.65028036    -0.28880
H1805       H  0.98102631  0.76542172  0.68575183     0.15310
H1806       H  0.55378726  0.76347407  0.65654784     0.15890
C1807       C  0.50957216  0.61946086  0.60521476    -0.10550
C1808       C  0.51019143  0.63967336  0.62536681    -0.12110
C1809       C  0.51175152  0.85961860  0.76015028    -0.13710
C1810       C  0.52695206  0.84139680  0.73823597    -0.28880
H1811       H  0.49640052  0.87902409  0.75267544     0.15310
H1812       H  0.54244072  0.82241503  0.74655331     0.15890
C1813       C  0.51299733  0.88951000  0.87512243    -0.10550
C1814       C  0.51395310  0.90952785  0.89555402    -0.12110
C1815       C  0.51207659  0.66326303  0.75698685    -0.13710
C1816       C  0.53474398  0.67297345  0.73569575    -0.28880
H1817       H  0.49023774  0.65224569  0.74914545     0.15310
H1818       H  0.55582348  0.68468068  0.74460242     0.15890
C1819       C  0.52850052  0.75392842  0.82800039    -0.13710
C1820       C  0.51133570  0.77482592  0.84552485    -0.28880
H1821       H  0.54507951  0.76325879  0.80969812     0.15310
H1822       H  0.49461200  0.76648532  0.86412782     0.15890
C1823       C  0.51220472  0.62389100  0.89505230    -0.10550
C1824       C  0.51129003  0.64402779  0.87426107    -0.12110
C1825       C  0.90565212  0.51565478  0.60482098    -0.10550
C1826       C  0.88502856  0.51616183  0.62560561    -0.12110
C1827       C  0.75387795  0.51639694  0.65360394    -0.13710
C1828       C  0.77401436  0.50019851  0.67237838    -0.28880
H1829       H  0.76314753  0.53152363  0.63423482     0.15310
H1830       H  0.76188358  0.98412260  0.69125853     0.15890
C1831       C  0.63906563  0.51894123  0.62327812    -0.10550
C1832       C  0.61843253  0.51806386  0.60380005    -0.12110
C1833       C  0.68174281  0.49661680  0.75689313    -0.13710
C1834       C  0.66702551  0.51750050  0.73773924    -0.28880
H1835       H  0.69690420  0.47853585  0.74577221     0.15310
H1836       H  0.65177449  0.53615039  0.74757347     0.15890
C1837       C  0.64268223  0.51861308  0.86863874    -0.10550
C1838       C  0.62211686  0.51950953  0.88933259    -0.12110
C1839       C  0.85481130  0.49843937  0.76574860    -0.13710
C1840       C  0.86438487  0.51918519  0.74275374    -0.28880
H1841       H  0.84236199  0.47693440  0.75884682     0.15310
H1842       H  0.87618539  0.54128787  0.74885999     0.15890
C1843       C  0.77584314  0.51973049  0.85181121    -0.13710
C1844       C  0.75674726  0.49563016  0.84373859    -0.28880
H1845       H  0.76586744  0.54236728  0.85963918     0.15310
H1846       H  0.76628205  0.97367835  0.83947361     0.15890
C1847       C  0.89100356  0.51973055  0.87579170    -0.10550
C1848       C  0.91100710  0.51893293  0.89582138    -0.12110
C1849       C  0.63891283  0.88925806  0.49804211    -0.10550
C1850       C  0.61823139  0.90923175  0.49871812    -0.12110
C1851       C  0.67574231  0.75187783  0.02043198    -0.13710
C1852       C  0.66487849  0.77266619  0.99866103    -0.28880
H1853       H  0.69724209  0.76472785  0.53413491     0.15310
H1854       H  0.65353123  0.76426172  0.97723790     0.15890
C1855       C  0.63927167  0.64414983  0.49827261    -0.10550
C1856       C  0.61916357  0.62355214  0.49749520    -0.12110
C1857       C  0.75670073  0.66710097  0.01055330    -0.13710
C1858       C  0.77679235  0.67537969  0.98636809    -0.28880
H1859       H  0.76277398  0.66566062  0.54086525     0.15310
H1860       H  0.76700285  0.68537764  0.96469323     0.15890
C1861       C  0.91046477  0.62115482  0.49585104    -0.10550
C1862       C  0.89030227  0.64151800  0.49583036    -0.12110
C1863       C  0.77166803  0.86675803  0.00059246    -0.13710
C1864       C  0.75060576  0.84935383  0.01823845    -0.28880
H1865       H  0.76358749  0.88456075  0.98360939     0.15310
H1866       H  0.76096842  0.87594958  0.51815942     0.15890
C1867       C  0.86086024  0.75649984  0.00053335    -0.13710
C1868       C  0.84687288  0.77830015  0.98175154    -0.28880
H1869       H  0.82696225  0.75926530  0.53437076     0.15310
H1870       H  0.83192265  0.77003005  0.96276135     0.15890
C1871       C  0.90565610  0.90902219  0.50145308    -0.10550
C1872       C  0.88563602  0.88821574  0.50075391    -0.12110
loop_ 
_geom_bond_atom_site_label_1 
_geom_bond_atom_site_label_2 
_geom_bond_distance 
_geom_bond_site_symmetry_2 
_ccdc_geom_bond_type 
C1            C2   1.404       .  A
C1            C6   1.404       .  A
C1          C234   1.438       .  S
C2          C237   1.400       .  A
C2            H7   1.084       .  S
C3            C4   1.399       .  A
C3          C236   1.396       .  A
C3          C230   1.476       .  S
C4            C5   1.395       .  A
C4            H8   1.085       .  S
C5          C240   1.409       .  A
C5          C225   1.480       .  S
C6          C239   1.400       .  A
C6            H9   1.084       .  S
C10          C11   1.412   1_556  A
C10          C15   1.405       .  A
C10         C224   1.442       .  S
C11         C246   1.408       .  A
C11          H16   1.084       .  S
C12          C13   1.396       .  A
C12         C245   1.397       .  A
C12         C229   1.466       .  S
C13          C14   1.396       .  A
C13          H17   1.085       .  S
C14         C249   1.398       .  A
C14         C220   1.467       .  S
C15         C248   1.396       .  A
C15          H18   1.084       .  S
C19          C20   1.404   1_556  A
C19          C24   1.405   1_556  A
C19         C217   1.431       .  S
C20         C255   1.398       .  A
C20          H25   1.084   1_554  S
C21          C22   1.400       .  A
C21         C254   1.397       .  A
C21         C219   1.477       .  S
C22          C23   1.394       .  A
C22          H26   1.085       .  S
C23         C258   1.408       .  A
C23         C213   1.479       .  S
C24         C257   1.399       .  A
C24          H27   1.084       .  S
C28          C29   1.413   1_556  A
C28          C33   1.407       .  A
C28         C211   1.445       .  S
C29         C264   1.408       .  A
C29          H34   1.083       .  S
C30          C31   1.410       .  A
C30         C263   1.400       .  A
C30         C226   1.490       .  S
C31          C32   1.410       .  A
C31          H35   1.083       .  S
C32         C267   1.400       .  A
C32         C214   1.489       .  S
C33         C266   1.399       .  A
C33          H36   1.084       .  S
C37          C38   1.404       .  A
C37          C42   1.407       .  A
C37         C209   1.434       .  S
C38          C39   1.397       .  A
C38          H43   1.084       .  S
C39          C40   1.400       .  A
C39         C205   1.473       .  S
C40          C41   1.395       .  A
C40          H44   1.085       .  S
C41          C42   1.401       .  A
C41         C201   1.469   1_545  S
C42          H45   1.084       .  S
C46          C47   1.402       .  A
C46          C51   1.412       .  A
C46         C199   1.438       .  S
C47          C48   1.395       .  A
C47          H52   1.085       .  S
C48          C49   1.395   1_545  A
C48         C206   1.466   1_545  S
C49          C50   1.399   1_565  A
C49          H53   1.085       .  S
C50          C51   1.408       .  A
C50         C195   1.481   1_545  S
C51          H54   1.083       .  S
C55          C56   1.407       .  A
C55          C60   1.408       .  A
C55         C193   1.443       .  S
C56          C57   1.402       .  A
C56          H61   1.084       .  S
C57          C58   1.405       .  A
C57         C189   1.489       .  S
C58          C59   1.405       .  A
C58          H62   1.084       .  S
C59          C60   1.402       .  A
C59         C196   1.489       .  S
C60          H63   1.084       .  S
C64          C65   1.405       .  A
C64          C69   1.409       .  A
C64         C188   1.439       .  S
C65          C66   1.398       .  A
C65          H70   1.084       .  S
C66          C67   1.403       .  A
C66         C202   1.482       .  S
C67          C68   1.398       .  A
C67          H71   1.085       .  S
C68          C69   1.404       .  A
C68         C190   1.478       .  S
C69          H72   1.084       .  S
C73          C74   1.401       .  A
C73          C78   1.404       .  A
C73         C186   1.432       .  S
C74          C75   1.396       .  A
C74          H79   1.085       .  S
C75          C76   1.400       .  A
C75         C181   1.467       .  S
C76          C77   1.407       .  A
C76          H80   1.084       .  S
C77          C78   1.400       .  A
C77         C177   1.484       .  S
C78          H81   1.084       .  S
C82          C83   1.407       .  A
C82          C87   1.406       .  A
C82         C175   1.439       .  S
C83          C84   1.401       .  A
C83          H88   1.084       .  S
C84          C85   1.399       .  A
C84         C182   1.476       .  S
C85          C86   1.395       .  A
C85          H89   1.086       .  S
C86          C87   1.400       .  A
C86         C171   1.467   1_455  S
C87          H90   1.084       .  S
C91          C92   1.411       .  A
C91          C96   1.409       .  A
C91         C170   1.447       .  S
C92          C93   1.406       .  A
C92          H97   1.083       .  S
C93          C94   1.393       .  A
C93         C178   1.476       .  S
C94          C95   1.399       .  A
C94          H98   1.086       .  S
C95          C96   1.402       .  A
C95         C166   1.482       .  S
C96          H99   1.084       .  S
C100        C101   1.402       .  A
C100        C105   1.404       .  A
C100        C164   1.431       .  S
C101        C102   1.396       .  A
C101        H106   1.084       .  S
C102        C103   1.404       .  A
C102        C172   1.479       .  S
C103        C104   1.401   1_455  A
C103        H107   1.084   1_455  S
C104        C105   1.401   1_655  A
C104        C165   1.476       .  S
C105        H108   1.084       .  S
O109        C120   1.290       .  A
O109      Eu1081   2.461       .  S
O110        C121   1.287       .  A
O110      Eu1080   2.447       .  S
O111        C122   1.288       .  A
O111       Eu117   2.448       .  S
O112        C123   1.289       .  A
O112       Eu351   2.457       .  S
O113        C123   1.286       .  A
O113      Eu1083   2.443       .  S
O114        C122   1.292       .  A
O114      Eu1082   2.470       .  S
O115        C121   1.292       .  A
O115       Eu117   2.474   1_556  S
O116        C120   1.289       .  A
O116       Eu585   2.455   1_556  S
Eu117       O346   2.457   1_554  S
Eu117       O584   2.464   1_545  S
Eu117       O125   2.355       .  S
Eu117       O829   2.353   1_544  S
Eu117       O587   2.358   1_545  S
Eu117       O352   2.344   1_554  S
O118       Eu351   2.348       .  S
O118      Eu1083   2.346       .  S
O118      Eu1314   2.352       .  S
O119       Eu585   2.359       .  S
O119      Eu1081   2.356   1_554  S
O119      Eu1550   2.349       .  S
C120        C233   1.433       .  S
C121        C223   1.437       .  S
C122        C187   1.435       .  S
C123        C210   1.429       .  S
H124        O125   0.966       .  S
O125      Eu1082   2.355       .  S
O125      Eu1080   2.351   1_554  S
H126        O127   0.966       .  S
O127       Eu819   2.356       .  S
O127      Eu1315   2.350       .  S
O127      Eu1551   2.358       .  S
O128        C151   1.288       .  A
O128       Eu144   2.449       .  S
O129        C152   1.292       .  A
O129       Eu145   2.473       .  S
O130        C153   1.291       .  A
O130       Eu146   2.466       .  S
O131        C154   1.287       .  A
O131       Eu147   2.444       .  S
O132        C155   1.289       .  A
O132       Eu615   2.458       .  S
O133        C156   1.289       .  A
O133       Eu614   2.456       .  S
O134        C157   1.291       .  A
O134       Eu148   2.467   1_554  S
O135        C158   1.292       .  A
O135       Eu382   2.472       .  S
O136        C157   1.290       .  A
O136       Eu146   2.460       .  S
O137        C158   1.286       .  A
O137       Eu147   2.443       .  S
O138        C153   1.292       .  A
O138       Eu144   2.472   1_554  S
O139        C156   1.286       .  A
O139       Eu145   2.441   1_554  S
O140        C155   1.289       .  A
O140       Eu379   2.456       .  S
O141        C154   1.289       .  A
O141       Eu378   2.454       .  S
O142        C151   1.288       .  A
O142       Eu148   2.449       .  S
O143        C152   1.289       .  A
O143       Eu616   2.458       .  S
Eu144      O1046   2.445   1_455  S
Eu144       O375   2.473       .  S
Eu144       O150   2.352   1_556  S
Eu144      O1288   2.349   1_455  S
Eu144      O1061   2.356   1_456  S
Eu144       O396   2.351       .  S
Eu145      O1045   2.462   1_455  S
Eu145       O374   2.439       .  S
Eu145       O160   2.350   1_556  S
Eu145      O1055   2.355   1_456  S
Eu145      O1297   2.356   1_455  S
Eu145       O383   2.349       .  S
Eu146      O1050   2.473   1_455  S
Eu146       O601   2.476   1_545  S
Eu146       O150   2.358       .  S
Eu146      O1523   2.351   1_445  S
Eu146      O1061   2.359   1_455  S
Eu146       O628   2.360   1_545  S
Eu147      O1049   2.446   1_455  S
Eu147       O600   2.457   1_545  S
Eu147       O162   2.357       .  S
Eu147      O1054   2.346   1_455  S
Eu147      O1531   2.351   1_445  S
Eu147       O617   2.346   1_545  S
Eu148       O369   2.466       .  S
Eu148       O611   2.456   1_545  S
Eu148       O150   2.353   1_556  S
Eu148       O851   2.354   1_545  S
Eu148       O628   2.356   1_546  S
Eu148       O396   2.353       .  S
O149       Eu379   2.352       .  S
O149       Eu615   2.349       .  S
O149       Eu850   2.358       .  S
C151        C218   1.426       .  S
C152        C212   1.441       .  S
C153        C169   1.443       .  S
C154        C185   1.427       .  S
C155        C176   1.434       .  S
C156        C163   1.426       .  S
C157        C194   1.438       .  S
C158        C200   1.434       .  S
H159        O160   0.966       .  S
O160       Eu614   2.356       .  S
O160       Eu616   2.351   1_554  S
H161        O162   0.965       .  S
O162       Eu378   2.352       .  S
O162       Eu382   2.348       .  S
C163        C164   1.201       .  T
C165        C166   1.345   1_655  D
C165       H1103   1.088       .  S
C166        H168   1.086       .  S
H167       C1101   1.087       .  S
C169        C170   1.210       .  T
C171        C172   1.340   1_655  D
C171        H173   1.087       .  S
C172        H174   1.087       .  S
C175        C176   1.205       .  T
C177        C178   1.341       .  D
C177        H179   1.086   1_455  S
C178        H180   1.088       .  S
C181        C182   1.341       .  D
C181        H183   1.086   1_455  S
C182        H184   1.087       .  S
C185        C186   1.201       .  T
C187        C188   1.206       .  T
C189        C190   1.345       .  D
C189        H191   1.086       .  S
C190        H660   1.087   1_545  S
H192        C658   1.087       .  S
C193        C194   1.208       .  T
C195        C196   1.346   1_565  D
C195        H197   1.088       .  S
C196        H198   1.086       .  S
C199        C200   1.205       .  T
C201        C202   1.342   1_565  D
C201        H203   1.088       .  S
C202        H204   1.086       .  S
C205        C206   1.340   1_545  D
C205        H207   1.087       .  S
C206        H676   1.088       .  S
H208        C674   1.087       .  S
C209        C210   1.202       .  T
C211        C212   1.209       .  T
C213        C214   1.343       .  D
C213        H449   1.088       .  S
C214        H216   1.087       .  S
H215        C447   1.088       .  S
C217        C218   1.201       .  T
C219        C220   1.341       .  D
C219        H455   1.086       .  S
C220        H222   1.088       .  S
H221        C453   1.088       .  S
C223        C224   1.207       .  T
C225        C226   1.343       .  D
C225        H227   1.088       .  S
C226        H462   1.086       .  S
H228        C460   1.088       .  S
C229        C230   1.341       .  D
C229        H465   1.088       .  S
C230        H232   1.087       .  S
H231        C463   1.087       .  S
C233        C234   1.205       .  T
C235        C236   1.405       .  A
C235        C240   1.414       .  A
C235        C468   1.444       .  S
C236        H241   1.084       .  S
C237        C238   1.409       .  A
C237        C464   1.490       .  S
C238        C239   1.409       .  A
C238        H242   1.083       .  S
C239        C459   1.489       .  S
C240        H243   1.083       .  S
C244        C245   1.403       .  A
C244        C249   1.404       .  A
C244        C458   1.429       .  S
C245        H250   1.084       .  S
C246        C247   1.395       .  A
C246        C463   1.479       .  S
C247        C248   1.399   1_554  A
C247        H251   1.085       .  S
C248        C454   1.476       .  S
C249        H252   1.084       .  S
C253        C254   1.405       .  A
C253        C258   1.413       .  A
C253        C451   1.443       .  S
C254        H259   1.084       .  S
C255        C256   1.397       .  A
C255        C453   1.468       .  S
C256        C257   1.397       .  A
C256        H260   1.085       .  S
C257        C447   1.470       .  S
C258        H261   1.083       .  S
C262        C263   1.404       .  A
C262        C267   1.404       .  A
C262        C445   1.438       .  S
C263        H268   1.084       .  S
C264        C265   1.394       .  A
C264        C460   1.479       .  S
C265        C266   1.400   1_554  A
C265        H269   1.085       .  S
C266        C448   1.480       .  S
C267        H270   1.084       .  S
C271        C272   1.405       .  A
C271        C276   1.407       .  A
C271        C443   1.436       .  S
C272        C273   1.398       .  A
C272        H277   1.084       .  S
C273        C274   1.400       .  A
C273        C439   1.475       .  S
C274        C275   1.394       .  A
C274        H278   1.085       .  S
C275        C276   1.401       .  A
C275        C435   1.469   1_545  S
C276        H279   1.084       .  S
C280        C281   1.403       .  A
C280        C285   1.410       .  A
C280        C433   1.435       .  S
C281        C282   1.395       .  A
C281        H286   1.085       .  S
C282        C283   1.396   1_545  A
C282        C440   1.466   1_545  S
C283        C284   1.399   1_565  A
C283        H287   1.085       .  S
C284        C285   1.405       .  A
C284        C429   1.478   1_545  S
C285        H288   1.084       .  S
C289        C290   1.410       .  A
C289        C294   1.408       .  A
C289        C427   1.445       .  S
C290        C291   1.405       .  A
C290        H295   1.084       .  S
C291        C292   1.403       .  A
C291        C423   1.492       .  S
C292        C293   1.403       .  A
C292        H296   1.084       .  S
C293        C294   1.401       .  A
C293        C430   1.487       .  S
C294        H297   1.084       .  S
C298        C299   1.403       .  A
C298        C303   1.409       .  A
C298        C422   1.437       .  S
C299        C300   1.396       .  A
C299        H304   1.085       .  S
C300        C301   1.404       .  A
C300        C436   1.481       .  S
C301        C302   1.401       .  A
C301        H305   1.085       .  S
C302        C303   1.405       .  A
C302        C424   1.481   1_545  S
C303        H306   1.084       .  S
C307        C308   1.403       .  A
C307        C312   1.411       .  A
C307        C420   1.440       .  S
C308        C309   1.397       .  A
C308        H313   1.085       .  S
C309        C310   1.400       .  A
C309        C415   1.476       .  S
C310        C311   1.396       .  A
C310        H314   1.084       .  S
C311        C312   1.407       .  A
C311        C411   1.477       .  S
C312        H315   1.084       .  S
C316        C317   1.403       .  A
C316        C321   1.402       .  A
C316        C409   1.428       .  S
C317        C318   1.397       .  A
C317        H322   1.084       .  S
C318        C319   1.396       .  A
C318        C416   1.464       .  S
C319        C320   1.396       .  A
C319        H323   1.085       .  S
C320        C321   1.396       .  A
C320        C405   1.463   1_455  S
C321        H324   1.084   1_455  S
C325        C326   1.405       .  A
C325        C330   1.404       .  A
C325        C404   1.437       .  S
C326        C327   1.400       .  A
C326        H331   1.084       .  S
C327        C328   1.408       .  A
C327        C412   1.488       .  S
C328        C329   1.408       .  A
C328        H332   1.084       .  S
C329        C330   1.400       .  A
C329        C400   1.488       .  S
C330        H333   1.084       .  S
C334        C335   1.403       .  A
C334        C339   1.412       .  A
C334        C398   1.440       .  S
C335        C336   1.396       .  A
C335        H340   1.084       .  S
C336        C337   1.400       .  A
C336        C406   1.475       .  S
C337        C338   1.395       .  A
C337        H341   1.085       .  S
C338        C339   1.407       .  A
C338        C399   1.478   1_455  S
C339        H342   1.084       .  S
O343        C354   1.294       .  A
O343      Eu1315   2.482       .  S
O344        C355   1.288       .  A
O344      Eu1314   2.446       .  S
O345        C356   1.287       .  A
O345       Eu351   2.443       .  S
O346        C357   1.289       .  A
O347        C357   1.287       .  A
O347      Eu1317   2.448       .  S
O348        C356   1.292       .  A
O348      Eu1316   2.471       .  S
O349        C355   1.287       .  A
O349       Eu351   2.446       .  S
O350        C354   1.287       .  A
O350       Eu819   2.448       .  S
Eu351       O818   2.463   1_545  S
Eu351       O595   2.347   1_545  S
Eu351       O821   2.352   1_545  S
Eu351       O359   2.359       .  S
O352      Eu1317   2.349       .  S
O352      Eu1080   2.351       .  S
O353       Eu819   2.356       .  S
O353      Eu1315   2.351       .  S
O353      Eu1784   2.356       .  S
C354        C467   1.440       .  S
C355        C457   1.424       .  S
C356        C421   1.433       .  S
C357        C444   1.431       .  S
H358        O359   0.966       .  S
O359      Eu1316   2.352       .  S
O359      Eu1314   2.354       .  S
H360        O361   0.966       .  S
O361       Eu585   2.363   1_556  S
O361      Eu1081   2.362       .  S
O361      Eu1785   2.352       .  S
O362        C385   1.288       .  A
O362       Eu378   2.453       .  S
O363        C386   1.289       .  A
O363       Eu379   2.457       .  S
O364        C387   1.289       .  A
O364       Eu380   2.452       .  S
O365        C388   1.287       .  A
O365       Eu381   2.444       .  S
O366        C389   1.288       .  A
O366       Eu849   2.451       .  S
O367        C390   1.293       .  A
O367       Eu848   2.476       .  S
O368        C391   1.290       .  A
O368       Eu382   2.462       .  S
O369        C392   1.291       .  A
O370        C391   1.292       .  A
O370       Eu380   2.470       .  S
O371        C392   1.286       .  A
O371       Eu381   2.443       .  S
O372        C387   1.289       .  A
O372       Eu378   2.459       .  S
O373        C390   1.287       .  A
O373       Eu379   2.445       .  S
O374        C389   1.286       .  A
O375        C388   1.292       .  A
O376        C385   1.292       .  A
O376       Eu382   2.472       .  S
O377        C386   1.290       .  A
O377       Eu850   2.457       .  S
Eu378      O1280   2.447   1_455  S
Eu378      O1054   2.349   1_455  S
Eu378      O1295   2.353   1_455  S
Eu378       O384   2.347       .  S
Eu379      O1279   2.467   1_455  S
Eu379      O1289   2.354   1_455  S
Eu379      O1063   2.351   1_455  S
Eu379       O394   2.358       .  S
Eu380      O1284   2.470   1_455  S
Eu380       O835   2.464   1_545  S
Eu380      O1757   2.355   1_445  S
Eu380      O1295   2.358   1_455  S
Eu380       O862   2.351   1_545  S
Eu380       O384   2.354       .  S
Eu381      O1283   2.448   1_455  S
Eu381       O834   2.459   1_545  S
Eu381      O1288   2.349   1_455  S
Eu381      O1765   2.347   1_445  S
Eu381       O851   2.351   1_545  S
Eu381       O396   2.353       .  S
Eu382       O845   2.455   1_545  S
Eu382       O617   2.356   1_545  S
Eu382       O862   2.362   1_545  S
Eu382       O384   2.350       .  S
O383       Eu849   2.352       .  S
O383       Eu616   2.350       .  S
C385        C452   1.439       .  S
C386        C446   1.433       .  S
C387        C403   1.432       .  S
C388        C419   1.436       .  S
C389        C410   1.424       .  S
C390        C397   1.436       .  S
C391        C428   1.440       .  S
C392        C434   1.431       .  S
H393        O394   0.966       .  S
O394       Eu848   2.353       .  S
O394       Eu850   2.361       .  S
H395        O396   0.966       .  S
C397        C398   1.207       .  T
C399        C400   1.343   1_655  D
C399       H1337   1.087       .  S
C400        H402   1.086       .  S
H401       C1335   1.088       .  S
C403        C404   1.204       .  T
C405        C406   1.340   1_655  D
C405        H407   1.087       .  S
C406        H408   1.087       .  S
C409        C410   1.199       .  T
C411        C412   1.343       .  D
C411        H413   1.087       .  S
C412        H414   1.086   1_455  S
C415        C416   1.341       .  D
C415        H417   1.087   1_455  S
C416        H418   1.087       .  S
C419        C420   1.206       .  T
C421        C422   1.205       .  T
C423        C424   1.348   1_545  D
C423        H425   1.086       .  S
C424        H894   1.087       .  S
H426        C892   1.087       .  S
C427        C428   1.209       .  T
C429        C430   1.345   1_565  D
C429        H431   1.088       .  S
C430        H432   1.086       .  S
C433        C434   1.203       .  T
C435        C436   1.340   1_565  D
C435        H437   1.088       .  S
C436        H438   1.087       .  S
C439        C440   1.341   1_545  D
C439        H441   1.087       .  S
C440        H910   1.088       .  S
H442        C908   1.088       .  S
C443        C444   1.204       .  T
C445        C446   1.205       .  T
C447        C448   1.342   1_554  D
C448        H450   1.087       .  S
C451        C452   1.208       .  T
C453        C454   1.341   1_554  D
C454        H456   1.087       .  S
C457        C458   1.199       .  T
C459        C460   1.343   1_556  D
C459        H461   1.086       .  S
C463        C464   1.343   1_554  D
C464        H466   1.086       .  S
C467        C468   1.209       .  T
C469        C470   1.405       .  A
C469        C474   1.402       .  A
C469        C702   1.437       .  S
C470        C705   1.402       .  A
C470        H475   1.084       .  S
C471        C704   1.400       .  A
C471        C472   1.400       .  A
C471        C698   1.482       .  S
C472        C473   1.394       .  A
C472        H476   1.085       .  S
C473        C708   1.408       .  A
C473        C693   1.479       .  S
C474        C707   1.398       .  A
C474        H477   1.084       .  S
C478        C479   1.415   1_556  A
C478        C483   1.406       .  A
C478        C692   1.447       .  S
C479        C714   1.410       .  A
C479        H484   1.084       .  S
C480        C713   1.401       .  A
C480        C481   1.399       .  A
C480        C697   1.473       .  S
C481        C482   1.400       .  A
C481        H485   1.084       .  S
C482        C717   1.394       .  A
C482        C688   1.471       .  S
C483        C716   1.397       .  A
C483        H486   1.084       .  S
C487        C488   1.405   1_556  A
C487        C492   1.403   1_556  A
C487        C685   1.429       .  S
C488        C723   1.398       .  A
C488        H493   1.084   1_554  S
C489        C722   1.396       .  A
C489        C490   1.393       .  A
C489        C687   1.465       .  S
C490        C491   1.395       .  A
C490        H494   1.085       .  S
C491        C726   1.410       .  A
C491        C681   1.479       .  S
C492        C725   1.398       .  A
C492        H495   1.084   1_554  S
C496        C497   1.414   1_556  A
C496        C501   1.407       .  A
C496        C679   1.446       .  S
C497        C732   1.408       .  A
C497        H502   1.083       .  S
C498        C731   1.400       .  A
C498        C499   1.409       .  A
C498        C694   1.489       .  S
C499        C500   1.408       .  A
C499        H503   1.084       .  S
C500        C735   1.399       .  A
C500        C682   1.486       .  S
C501        C734   1.399       .  A
C501        H504   1.084       .  S
C505        C506   1.403       .  A
C505        C510   1.406       .  A
C505        C677   1.437       .  S
C506        C507   1.398       .  A
C506        H511   1.084       .  S
C507        C508   1.401       .  A
C507        C673   1.475       .  S
C508        C509   1.408       .  A
C508        H512   1.084       .  S
C509        C510   1.402       .  A
C509        C669   1.488       .  S
C510        H513   1.084       .  S
C514        C515   1.407       .  A
C514        C519   1.409       .  A
C514        C667   1.440       .  S
C515        C516   1.400       .  A
C515        H520   1.084       .  S
C516        C517   1.395       .  A
C516        C674   1.472       .  S
C517        C518   1.399       .  A
C517        H521   1.085       .  S
C518        C519   1.405       .  A
C518        C663   1.478       .  S
C519        H522   1.084       .  S
C523        C524   1.405       .  A
C523        C528   1.409       .  A
C523        C661   1.437       .  S
C524        C525   1.398       .  A
C524        H529   1.084       .  S
C525        C526   1.396       .  A
C525        C657   1.469       .  S
C526        C527   1.402       .  A
C526        H530   1.085       .  S
C527        C528   1.402       .  A
C527        C664   1.483       .  S
C528        H531   1.084       .  S
C532        C533   1.410       .  A
C532        C537   1.407       .  A
C532        C656   1.442       .  S
C533        C534   1.405       .  A
C533        H538   1.084       .  S
C534        C535   1.396       .  A
C534        C670   1.477       .  S
C535        C536   1.401       .  A
C535        H539   1.085       .  S
C536        C537   1.400       .  A
C536        C658   1.481       .  S
C537        H540   1.084       .  S
C541        C542   1.404       .  A
C541        C546   1.409       .  A
C541        C654   1.437       .  S
C542        C543   1.396       .  A
C542        H547   1.084       .  S
C543        C544   1.401       .  A
C543        C649   1.477       .  S
C544        C545   1.398       .  A
C544        H548   1.085       .  S
C545        C546   1.405       .  A
C545        C645   1.477   1_455  S
C546        H549   1.084       .  S
C550        C551   1.406       .  A
C550        C555   1.403       .  A
C550        C643   1.433       .  S
C551        C552   1.401       .  A
C551        H556   1.084       .  S
C552        C553   1.396       .  A
C552        C650   1.468       .  S
C553        C554   1.395       .  A
C553        H557   1.085       .  S
C554        C555   1.396       .  A
C554        C639   1.464   1_455  S
C555        H558   1.084   1_455  S
C559        C560   1.406       .  A
C559        C564   1.407       .  A
C559        C638   1.441       .  S
C560        C561   1.401       .  A
C560        H565   1.084       .  S
C561        C562   1.406       .  A
C561        C646   1.489       .  S
C562        C563   1.406       .  A
C562        H566   1.083       .  S
C563        C564   1.402       .  A
C563        C634   1.490       .  S
C564        H567   1.084       .  S
C568        C569   1.401       .  A
C568        C573   1.410       .  A
C568        C632   1.437       .  S
C569        C570   1.394       .  A
C569        H574   1.084       .  S
C570        C571   1.401       .  A
C570        C640   1.474       .  S
C571        C572   1.398       .  A
C571        H575   1.084       .  S
C572        C573   1.407       .  A
C572        C633   1.479   1_455  S
C573        H576   1.084       .  S
O577        C588   1.288       .  A
O577      Eu1549   2.450       .  S
O578        C589   1.288       .  A
O578      Eu1548   2.451   1_554  S
O579        C590   1.291       .  A
O579       Eu585   2.466       .  S
O580        C591   1.289       .  A
O580       Eu819   2.458       .  S
O581        C591   1.289       .  A
O581      Eu1551   2.456       .  S
O582        C590   1.289       .  A
O582      Eu1550   2.459       .  S
O583        C589   1.294       .  A
O583       Eu585   2.482       .  S
O584        C588   1.291       .  A
Eu585       O814   2.460   1_554  S
Eu585       O820   2.345   1_554  S
Eu585       O593   2.349       .  S
O586       Eu819   2.345       .  S
O586      Eu1551   2.350       .  S
O586      Eu1782   2.349       .  S
O587      Eu1549   2.355       .  S
O587      Eu1082   2.351   1_565  S
C588        C701   1.432       .  S
C589        C691   1.443   1_554  S
C590        C655   1.438       .  S
C591        C678   1.433       .  S
H592        O593   0.966       .  S
O593      Eu1550   2.359       .  S
O593      Eu1548   2.356   1_554  S
H594        O595   0.966       .  S
O595      Eu1783   2.357       .  S
O595      Eu1083   2.354   1_565  S
O596        C619   1.289       .  A
O596       Eu612   2.453       .  S
O597        C620   1.293       .  A
O597       Eu613   2.477       .  S
O598        C621   1.290       .  A
O598       Eu614   2.462       .  S
O599        C622   1.287       .  A
O599       Eu615   2.444       .  S
O600        C623   1.289       .  A
O601        C624   1.293       .  A
O602        C625   1.291       .  A
O602       Eu616   2.467   1_554  S
O603        C626   1.290       .  A
O603       Eu850   2.460       .  S
O604        C625   1.288       .  A
O604       Eu614   2.447       .  S
O605        C626   1.290       .  A
O605       Eu615   2.459       .  S
O606        C621   1.289       .  A
O606       Eu612   2.457   1_554  S
O607        C624   1.286       .  A
O607       Eu613   2.439   1_554  S
O608        C623   1.287       .  A
O608       Eu847   2.444       .  S
O609        C622   1.291       .  A
O609       Eu846   2.466       .  S
O610        C619   1.287       .  A
O610       Eu616   2.443       .  S
O611        C620   1.289       .  A
Eu612      O1514   2.455   1_456  S
Eu612       O843   2.460       .  S
Eu612      O1756   2.346   1_455  S
Eu612      O1529   2.356   1_456  S
Eu612       O864   2.353       .  S
Eu612       O618   2.352   1_556  S
Eu613      O1513   2.463   1_456  S
Eu613       O842   2.449       .  S
Eu613      O1523   2.359   1_456  S
Eu613      O1765   2.358   1_455  S
Eu613       O851   2.347       .  S
Eu613       O628   2.355   1_556  S
Eu614      O1518   2.461   1_455  S
Eu614      O1055   2.350   1_455  S
Eu614      O1529   2.353   1_455  S
Eu614       O618   2.353       .  S
Eu615      O1517   2.463   1_455  S
Eu615      O1522   2.351   1_455  S
Eu615      O1063   2.352   1_455  S
Eu615       O630   2.359       .  S
Eu616       O837   2.463       .  S
Eu616       O864   2.356       .  S
Eu616       O618   2.355   1_556  S
O617       Eu847   2.356       .  S
C619        C686   1.425       .  S
C620        C680   1.442       .  S
C621        C637   1.436       .  S
C622        C653   1.432       .  S
C623        C644   1.428       .  S
C624        C631   1.433       .  S
C625        C662   1.433       .  S
C626        C668   1.436       .  S
H627        O628   0.966       .  S
H629        O630   0.966       .  S
O630       Eu846   2.348       .  S
O630       Eu850   2.349       .  S
C631        C632   1.205       .  T
C633        C634   1.345   1_655  D
C633       H1571   1.087       .  S
C634        H636   1.086       .  S
H635       C1569   1.087       .  S
C637        C638   1.207       .  T
C639        C640   1.339   1_655  D
C639        H641   1.087       .  S
C640        H642   1.087       .  S
C643        C644   1.202       .  T
C645        C646   1.345   1_655  D
C645        H647   1.087       .  S
C646        H648   1.086       .  S
C649        C650   1.341       .  D
C649        H651   1.086   1_455  S
C650        H652   1.088       .  S
C653        C654   1.204       .  T
C655        C656   1.208       .  T
C657        C658   1.343       .  D
C657        H659   1.088       .  S
C661        C662   1.205       .  T
C663        C664   1.344       .  D
C663        H665   1.088       .  S
C664        H666   1.086       .  S
C667        C668   1.206       .  T
C669        C670   1.343       .  D
C669        H671   1.086       .  S
C670        H672   1.087       .  S
C673        C674   1.340       .  D
C673        H675   1.087       .  S
C677        C678   1.205       .  T
C679        C680   1.210       .  T
C681        C682   1.342       .  D
C681        H917   1.088       .  S
C682        H684   1.086       .  S
H683        C915   1.088       .  S
C685        C686   1.200       .  T
C687        C688   1.338       .  D
C687        H923   1.088       .  S
C688        H690   1.087       .  S
H689        C921   1.088       .  S
C691        C692   1.210       .  T
C693        C694   1.343       .  D
C693        H695   1.088       .  S
C694        H930   1.086       .  S
H696        C928   1.088       .  S
C697        C698   1.344       .  D
C697        H933   1.088       .  S
C698        H700   1.086       .  S
H699        C931   1.088       .  S
C701        C702   1.204   1_554  T
C703        C704   1.408       .  A
C703        C708   1.413       .  A
C703        C936   1.447       .  S
C704        H709   1.084       .  S
C705        C706   1.411       .  A
C705        C932   1.492       .  S
C706        C707   1.410       .  A
C706        H710   1.083       .  S
C707        C927   1.487       .  S
C708        H711   1.083       .  S
C712        C713   1.405       .  A
C712        C717   1.401       .  A
C712        C926   1.429       .  S
C713        H718   1.084       .  S
C714        C715   1.395       .  A
C714        C931   1.482       .  S
C715        C716   1.399   1_554  A
C715        H719   1.085       .  S
C716        C922   1.477       .  S
C717        H720   1.084       .  S
C721        C722   1.404       .  A
C721        C726   1.414       .  A
C721        C919   1.444       .  S
C722        H727   1.084       .  S
C723        C724   1.397       .  A
C723        C921   1.469       .  S
C724        C725   1.398       .  A
C724        H728   1.085       .  S
C725        C915   1.469       .  S
C726        H729   1.083       .  S
C730        C731   1.405       .  A
C730        C735   1.404       .  A
C730        C913   1.437       .  S
C731        H736   1.084       .  S
C732        C733   1.392       .  A
C732        C928   1.478       .  S
C733        C734   1.399   1_554  A
C733        H737   1.085       .  S
C734        C916   1.479       .  S
C735        H738   1.084       .  S
C739        C740   1.406       .  A
C739        C744   1.407       .  A
C739        C911   1.438       .  S
C740        C741   1.400       .  A
C740        H745   1.084       .  S
C741        C742   1.401       .  A
C741        C907   1.479       .  S
C742        C743   1.395       .  A
C742        H746   1.085       .  S
C743        C744   1.401       .  A
C743        C903   1.471       .  S
C744        H747   1.084       .  S
C748        C749   1.406       .  A
C748        C753   1.409       .  A
C748        C901   1.438       .  S
C749        C750   1.398       .  A
C749        H754   1.084       .  S
C750        C751   1.395       .  A
C750        C908   1.469       .  S
C751        C752   1.397       .  A
C751        H755   1.086       .  S
C752        C753   1.405       .  A
C752        C897   1.476       .  S
C753        H756   1.084       .  S
C757        C758   1.410       .  A
C757        C762   1.406       .  A
C757        C895   1.443       .  S
C758        C759   1.405       .  A
C758        H763   1.084       .  S
C759        C760   1.405       .  A
C759        C891   1.493       .  S
C760        C761   1.403       .  A
C760        H764   1.084       .  S
C761        C762   1.399       .  A
C761        C898   1.484       .  S
C762        H765   1.084       .  S
C766        C767   1.405       .  A
C766        C771   1.410       .  A
C766        C890   1.442       .  S
C767        C768   1.398       .  A
C767        H772   1.084       .  S
C768        C769   1.403       .  A
C768        C904   1.482       .  S
C769        C770   1.400       .  A
C769        H773   1.085       .  S
C770        C771   1.406       .  A
C770        C892   1.482       .  S
C771        H774   1.084       .  S
C775        C776   1.406       .  A
C775        C780   1.408       .  A
C775        C888   1.439       .  S
C776        C777   1.401       .  A
C776        H781   1.084       .  S
C777        C778   1.397       .  A
C777        C883   1.475       .  S
C778        C779   1.402       .  A
C778        H782   1.084       .  S
C779        C780   1.401       .  A
C779        C879   1.485       .  S
C780        H783   1.084       .  S
C784        C785   1.408       .  A
C784        C789   1.405       .  A
C784        C877   1.437       .  S
C785        C786   1.401       .  A
C785        H790   1.084       .  S
C786        C787   1.402       .  A
C786        C884   1.482       .  S
C787        C788   1.395       .  A
C787        H791   1.085       .  S
C788        C789   1.399       .  A
C788        C873   1.469   1_455  S
C789        H792   1.084       .  S
C793        C794   1.407       .  A
C793        C798   1.408       .  A
C793        C872   1.440       .  S
C794        C795   1.400       .  A
C794        H799   1.084       .  S
C795        C796   1.397       .  A
C795        C880   1.472       .  S
C796        C797   1.403       .  A
C796        H800   1.085       .  S
C797        C798   1.401       .  A
C797        C868   1.484       .  S
C798        H801   1.084       .  S
C802        C803   1.406       .  A
C802        C807   1.408       .  A
C802        C866   1.438       .  S
C803        C804   1.399       .  A
C803        H808   1.084       .  S
C804        C805   1.402       .  A
C804        C874   1.482       .  S
C805        C806   1.397       .  A
C805        H809   1.085       .  S
C806        C807   1.403       .  A
C806        C867   1.476   1_455  S
C807        H810   1.084       .  S
O811        C822   1.292       .  A
O811      Eu1783   2.473       .  S
O812        C823   1.285       .  A
O812      Eu1782   2.435       .  S
O813        C824   1.289       .  A
O813       Eu819   2.456       .  S
O814        C825   1.290       .  A
O815        C825   1.289       .  A
O815      Eu1785   2.453       .  S
O816        C824   1.292       .  A
O816      Eu1784   2.470       .  S
O817        C823   1.289       .  A
O817       Eu819   2.455       .  S
O818        C822   1.290       .  A
Eu819       O827   2.352       .  S
O820      Eu1785   2.349       .  S
O820      Eu1548   2.347       .  S
O821      Eu1783   2.351       .  S
O821      Eu1316   2.356   1_565  S
C822        C935   1.443       .  S
C823        C925   1.424       .  S
C824        C889   1.438       .  S
C825        C912   1.433       .  S
H826        O827   0.966       .  S
O827      Eu1784   2.355       .  S
O827      Eu1782   2.350       .  S
H828        O829   0.965       .  S
O829      Eu1549   2.360   1_556  S
O829      Eu1317   2.346   1_565  S
O830        C853   1.287       .  A
O830       Eu846   2.446       .  S
O831        C854   1.290       .  A
O831       Eu847   2.459       .  S
O832        C855   1.290       .  A
O832       Eu848   2.458       .  S
O833        C856   1.288       .  A
O833       Eu849   2.452       .  S
O834        C857   1.289       .  A
O835        C858   1.291       .  A
O836        C859   1.290       .  A
O836       Eu850   2.458       .  S
O837        C860   1.290       .  A
O838        C859   1.292       .  A
O838       Eu848   2.468       .  S
O839        C860   1.288       .  A
O839       Eu849   2.453       .  S
O840        C855   1.290       .  A
O840       Eu846   2.462       .  S
O841        C858   1.288       .  A
O841       Eu847   2.449       .  S
O842        C857   1.288       .  A
O843        C856   1.290       .  A
O844        C853   1.293       .  A
O844       Eu850   2.479       .  S
O845        C854   1.289       .  A
Eu846      O1748   2.433   1_455  S
Eu846      O1522   2.349   1_455  S
Eu846      O1763   2.356   1_455  S
Eu846       O852   2.348       .  S
Eu847      O1747   2.477   1_455  S
Eu847      O1757   2.350   1_455  S
Eu847      O1531   2.353   1_455  S
Eu847       O862   2.356       .  S
Eu848      O1752   2.474   1_455  S
Eu848      O1289   2.353   1_455  S
Eu848      O1763   2.359   1_455  S
Eu848       O852   2.360       .  S
Eu849      O1751   2.448   1_455  S
Eu849      O1756   2.349   1_455  S
Eu849      O1297   2.350   1_455  S
Eu849       O864   2.346       .  S
Eu850       O852   2.348       .  S
C853        C920   1.440       .  S
C854        C914   1.432       .  S
C855        C871   1.435       .  S
C856        C887   1.434       .  S
C857        C878   1.432       .  S
C858        C865   1.433       .  S
C859        C896   1.438       .  S
C860        C902   1.434       .  S
H861        O862   0.966       .  S
H863        O864   0.965       .  S
C865        C866   1.205       .  T
C867        C868   1.343   1_655  D
C867       H1805   1.088       .  S
C868        H870   1.086       .  S
H869       C1803   1.087       .  S
C871        C872   1.206       .  T
C873        C874   1.342   1_655  D
C873        H875   1.088       .  S
C874        H876   1.087       .  S
C877        C878   1.204       .  T
C879        C880   1.344       .  D
C879        H881   1.087   1_455  S
C880        H882   1.087       .  S
C883        C884   1.343       .  D
C883        H885   1.088       .  S
C884        H886   1.086   1_455  S
C887        C888   1.205       .  T
C889        C890   1.207       .  T
C891        C892   1.348       .  D
C891        H893   1.086       .  S
C895        C896   1.208       .  T
C897        C898   1.343       .  D
C897        H899   1.088       .  S
C898        H900   1.086       .  S
C901        C902   1.205       .  T
C903        C904   1.342       .  D
C903        H905   1.088       .  S
C904        H906   1.087       .  S
C907        C908   1.342       .  D
C907        H909   1.086       .  S
C911        C912   1.205       .  T
C913        C914   1.204       .  T
C915        C916   1.343   1_554  D
C916        H918   1.087       .  S
C919        C920   1.209       .  T
C921        C922   1.342   1_554  D
C922        H924   1.087       .  S
C925        C926   1.200       .  T
C927        C928   1.341   1_556  D
C927        H929   1.086       .  S
C931        C932   1.343   1_554  D
C932        H934   1.086       .  S
C935        C936   1.210       .  T
C937        C938   1.404       .  A
C937        C942   1.405       .  A
C937       C1170   1.439       .  S
C938       C1173   1.401       .  A
C938        H943   1.084       .  S
C939       C1172   1.399       .  A
C939        C940   1.401       .  A
C939       C1166   1.481       .  S
C940        C941   1.397       .  A
C940        H944   1.085       .  S
C941       C1176   1.405       .  A
C941       C1161   1.478       .  S
C942       C1175   1.401       .  A
C942        H945   1.084       .  S
C946        C947   1.414   1_556  A
C946        C951   1.405       .  A
C946       C1160   1.443       .  S
C947       C1182   1.409       .  A
C947        H952   1.084       .  S
C948       C1181   1.401       .  A
C948        C949   1.398       .  A
C948       C1165   1.474       .  S
C949        C950   1.403       .  A
C949        H953   1.084       .  S
C950       C1185   1.399       .  A
C950       C1156   1.482       .  S
C951       C1184   1.396       .  A
C951        H954   1.084       .  S
C955        C956   1.403   1_556  A
C955        C960   1.405   1_556  A
C955       C1153   1.430       .  S
C956       C1191   1.397       .  A
C956        H961   1.084   1_554  S
C957       C1190   1.398       .  A
C957        C958   1.395       .  A
C957       C1155   1.469       .  S
C958        C959   1.403       .  A
C958        H962   1.085       .  S
C959       C1194   1.403       .  A
C959       C1149   1.485       .  S
C960       C1193   1.399       .  A
C960        H963   1.084       .  S
C964        C965   1.414   1_556  A
C964        C969   1.407       .  A
C964       C1147   1.446       .  S
C965       C1200   1.409       .  A
C965        H970   1.083       .  S
C966       C1199   1.402       .  A
C966        C967   1.403       .  A
C966       C1162   1.485       .  S
C967        C968   1.397       .  A
C967        H971   1.085       .  S
C968       C1203   1.400       .  A
C968       C1150   1.472       .  S
C969       C1202   1.399       .  A
C969        H972   1.084       .  S
C973        C974   1.405       .  A
C973        C978   1.407       .  A
C973       C1145   1.435       .  S
C974        C975   1.397       .  A
C974        H979   1.084       .  S
C975        C976   1.399       .  A
C975       C1141   1.474       .  S
C976        C977   1.395       .  A
C976        H980   1.085       .  S
C977        C978   1.401       .  A
C977       C1137   1.470   1_545  S
C978        H981   1.084       .  S
C982        C983   1.403       .  A
C982        C987   1.412       .  A
C982       C1135   1.438       .  S
C983        C984   1.394   1_545  A
C983        H988   1.085       .  S
C984        C985   1.395       .  A
C984       C1142   1.466       .  S
C985        C986   1.399   1_565  A
C985        H989   1.085       .  S
C986        C987   1.408       .  A
C986       C1131   1.482   1_545  S
C987        H990   1.083       .  S
C991        C992   1.407       .  A
C991        C996   1.408       .  A
C991       C1129   1.443       .  S
C992        C993   1.402       .  A
C992        H997   1.084       .  S
C993        C994   1.405       .  A
C993       C1125   1.489       .  S
C994        C995   1.406       .  A
C994        H998   1.084       .  S
C995        C996   1.403       .  A
C995       C1132   1.490       .  S
C996        H999   1.084       .  S
C1000      C1001   1.405       .  A
C1000      C1005   1.410       .  A
C1000      C1124   1.441       .  S
C1001      C1002   1.399       .  A
C1001      H1006   1.084       .  S
C1002      C1003   1.403       .  A
C1002      C1138   1.483       .  S
C1003      C1004   1.397       .  A
C1003      H1007   1.085       .  S
C1004      C1005   1.405       .  A
C1004      C1126   1.478       .  S
C1005      H1008   1.084       .  S
C1009      C1010   1.406       .  A
C1009      C1014   1.412       .  A
C1009      C1122   1.442       .  S
C1010      C1011   1.397       .  A
C1010      H1015   1.084       .  S
C1011      C1012   1.399       .  A
C1011      C1117   1.477       .  S
C1012      C1013   1.399       .  A
C1012      H1016   1.085       .  S
C1013      C1014   1.407       .  A
C1013      C1113   1.481       .  S
C1014      H1017   1.084       .  S
C1018      C1019   1.409       .  A
C1018      C1023   1.405       .  A
C1018      C1111   1.438       .  S
C1019      C1020   1.404       .  A
C1019      H1024   1.084       .  S
C1020      C1021   1.397       .  A
C1020      C1118   1.475       .  S
C1021      C1022   1.396       .  A
C1021      H1025   1.086       .  S
C1022      C1023   1.399       .  A
C1022      C1107   1.469       .  S
C1023      H1026   1.084       .  S
C1027      C1028   1.408       .  A
C1027      C1032   1.404       .  A
C1027      C1106   1.440       .  S
C1028      C1029   1.403       .  A
C1028      H1033   1.084       .  S
C1029      C1030   1.407       .  A
C1029      C1114   1.492       .  S
C1030      C1031   1.406       .  A
C1030      H1034   1.083       .  S
C1031      C1032   1.399       .  A
C1031      C1102   1.488       .  S
C1032      H1035   1.084       .  S
C1036      C1037   1.406       .  A
C1036      C1041   1.410       .  A
C1036      C1100   1.440       .  S
C1037      C1038   1.398       .  A
C1037      H1042   1.084       .  S
C1038      C1039   1.400       .  A
C1038      C1108   1.477       .  S
C1039      C1040   1.396       .  A
C1039      H1043   1.085       .  S
C1040      C1041   1.405       .  A
C1040      C1101   1.477       .  S
C1041      H1044   1.084       .  S
O1045      C1056   1.290       .  A
O1046      C1057   1.287       .  A
O1047      C1058   1.288       .  A
O1047     Eu1053   2.450       .  S
O1048      C1059   1.289       .  A
O1048     Eu1287   2.458       .  S
O1049      C1059   1.287       .  A
O1050      C1058   1.292       .  A
O1051      C1057   1.293       .  A
O1051     Eu1053   2.479   1_556  S
O1052      C1056   1.289   1_554  A
O1052     Eu1521   2.456       .  S
Eu1053     O1282   2.457   1_554  S
Eu1053     O1520   2.464   1_545  S
Eu1053     O1765   2.360   1_544  S
Eu1053     O1523   2.358   1_545  S
Eu1053     O1288   2.343   1_554  S
Eu1053     O1061   2.355       .  S
O1054     Eu1287   2.344       .  S
O1055     Eu1521   2.353       .  S
C1056      C1169   1.434       .  S
C1057      C1159   1.439       .  S
C1058      C1123   1.437       .  S
C1059      C1146   1.430       .  S
H1060      O1061   0.966       .  S
H1062      O1063   0.966       .  S
O1063     Eu1755   2.358       .  S
O1064      C1087   1.287       .  A
O1064     Eu1080   2.446       .  S
O1065      C1088   1.293       .  A
O1065     Eu1081   2.477       .  S
O1066      C1089   1.288       .  A
O1066     Eu1082   2.450       .  S
O1067      C1090   1.288       .  A
O1067     Eu1083   2.455       .  S
O1068      C1091   1.291       .  A
O1068     Eu1551   2.466       .  S
O1069      C1092   1.291       .  A
O1069     Eu1550   2.464       .  S
O1070      C1093   1.291       .  A
O1070     Eu1084   2.465   1_554  S
O1071      C1094   1.292       .  A
O1071     Eu1318   2.472       .  S
O1072      C1093   1.290       .  A
O1072     Eu1082   2.462       .  S
O1073      C1094   1.286       .  A
O1073     Eu1083   2.442       .  S
O1074      C1089   1.291       .  A
O1074     Eu1080   2.466   1_554  S
O1075      C1092   1.289       .  A
O1075     Eu1081   2.456   1_554  S
O1076      C1091   1.288       .  A
O1076     Eu1315   2.449       .  S
O1077      C1090   1.291       .  A
O1077     Eu1314   2.468       .  S
O1078      C1087   1.288       .  A
O1078     Eu1084   2.450       .  S
O1079      C1088   1.289       .  A
O1079     Eu1552   2.456       .  S
Eu1080     O1311   2.454       .  S
Eu1080     O1332   2.352       .  S
Eu1080     O1086   2.349   1_556  S
Eu1081     O1310   2.446       .  S
Eu1081     O1319   2.351       .  S
Eu1081     O1096   2.349   1_556  S
Eu1082     O1537   2.451   1_545  S
Eu1082     O1564   2.360   1_545  S
Eu1082     O1086   2.354       .  S
Eu1083     O1536   2.452   1_545  S
Eu1083     O1553   2.352   1_545  S
Eu1083     O1098   2.350       .  S
Eu1084     O1305   2.469       .  S
Eu1084     O1547   2.455   1_545  S
Eu1084     O1787   2.351   1_545  S
Eu1084     O1564   2.359   1_546  S
Eu1084     O1332   2.349       .  S
Eu1084     O1086   2.356   1_556  S
O1085     Eu1315   2.356       .  S
O1085     Eu1551   2.347       .  S
O1085     Eu1786   2.354       .  S
C1087      C1154   1.425       .  S
C1088      C1148   1.442       .  S
C1089      C1105   1.435       .  S
C1090      C1121   1.437       .  S
C1091      C1112   1.434       .  S
C1092      C1099   1.436       .  S
C1093      C1130   1.438       .  S
C1094      C1136   1.434       .  S
H1095      O1096   0.966       .  S
O1096     Eu1550   2.354       .  S
O1096     Eu1552   2.354   1_554  S
H1097      O1098   0.965       .  S
O1098     Eu1314   2.351       .  S
O1098     Eu1318   2.349       .  S
C1099      C1100   1.206       .  T
C1101      C1102   1.343       .  D
C1102      H1104   1.086       .  S
C1105      C1106   1.206       .  T
C1107      C1108   1.341       .  D
C1107      H1109   1.088       .  S
C1108      H1110   1.087       .  S
C1111      C1112   1.205       .  T
C1113      C1114   1.346       .  D
C1113      H1115   1.087       .  S
C1114      H1116   1.086       .  S
C1117      C1118   1.341       .  D
C1117      H1119   1.086       .  S
C1118      H1120   1.089       .  S
C1121      C1122   1.207       .  T
C1123      C1124   1.207       .  T
C1125      C1126   1.345       .  D
C1125      H1127   1.086       .  S
C1126      H1596   1.087   1_545  S
H1128      C1594   1.087       .  S
C1129      C1130   1.208       .  T
C1131      C1132   1.346   1_565  D
C1131      H1133   1.088       .  S
C1132      H1134   1.086       .  S
C1135      C1136   1.205       .  T
C1137      C1138   1.342   1_565  D
C1137      H1139   1.088       .  S
C1138      H1140   1.086       .  S
C1141      C1142   1.341   1_545  D
C1141      H1143   1.087       .  S
C1142      H1612   1.088       .  S
H1144      C1610   1.088       .  S
C1145      C1146   1.203       .  T
C1147      C1148   1.210       .  T
C1149      C1150   1.345       .  D
C1149      H1385   1.086       .  S
C1150      H1152   1.087       .  S
H1151      C1383   1.088       .  S
C1153      C1154   1.200       .  T
C1155      C1156   1.342       .  D
C1155      H1391   1.087       .  S
C1156      H1158   1.087       .  S
H1157      C1389   1.088       .  S
C1159      C1160   1.208       .  T
C1161      C1162   1.344       .  D
C1161      H1163   1.089       .  S
C1162      H1398   1.086       .  S
H1164      C1396   1.088       .  S
C1165      C1166   1.343       .  D
C1165      H1401   1.089       .  S
C1166      H1168   1.086       .  S
H1167      C1399   1.087       .  S
C1169      C1170   1.205       .  T
C1171      C1172   1.407       .  A
C1171      C1176   1.410       .  A
C1171      C1404   1.441       .  S
C1172      H1177   1.084       .  S
C1173      C1174   1.410       .  A
C1173      C1400   1.491       .  S
C1174      C1175   1.409       .  A
C1174      H1178   1.083       .  S
C1175      C1395   1.490       .  S
C1176      H1179   1.083       .  S
C1180      C1181   1.406       .  A
C1180      C1185   1.405       .  A
C1180      C1394   1.435       .  S
C1181      H1186   1.084       .  S
C1182      C1183   1.395       .  A
C1182      C1399   1.480       .  S
C1183      C1184   1.399   1_554  A
C1183      H1187   1.085       .  S
C1184      C1390   1.475       .  S
C1185      H1188   1.084       .  S
C1189      C1190   1.405       .  A
C1189      C1194   1.408       .  A
C1189      C1387   1.438       .  S
C1190      H1195   1.084       .  S
C1191      C1192   1.397       .  A
C1191      C1389   1.467       .  S
C1192      C1193   1.397       .  A
C1192      H1196   1.085       .  S
C1193      C1383   1.470       .  S
C1194      H1197   1.084       .  S
C1198      C1199   1.408       .  A
C1198      C1203   1.406       .  A
C1198      C1381   1.439       .  S
C1199      H1204   1.084       .  S
C1200      C1201   1.394       .  A
C1200      C1396   1.481       .  S
C1201      C1202   1.400   1_554  A
C1201      H1205   1.085       .  S
C1202      C1384   1.480       .  S
C1203      H1206   1.084       .  S
C1207      C1208   1.405       .  A
C1207      C1212   1.407       .  A
C1207      C1379   1.435       .  S
C1208      C1209   1.398       .  A
C1208      H1213   1.084       .  S
C1209      C1210   1.400       .  A
C1209      C1375   1.475       .  S
C1210      C1211   1.394       .  A
C1210      H1214   1.085       .  S
C1211      C1212   1.401       .  A
C1211      C1371   1.470   1_545  S
C1212      H1215   1.084       .  S
C1216      C1217   1.403       .  A
C1216      C1221   1.411       .  A
C1216      C1369   1.437       .  S
C1217      C1218   1.395       .  A
C1217      H1222   1.085       .  S
C1218      C1219   1.395   1_545  A
C1218      C1376   1.466   1_545  S
C1219      C1220   1.398   1_565  A
C1219      H1223   1.085       .  S
C1220      C1221   1.406       .  A
C1220      C1365   1.479   1_545  S
C1221      H1224   1.083       .  S
C1225      C1226   1.410       .  A
C1225      C1230   1.408       .  A
C1225      C1363   1.445       .  S
C1226      C1227   1.405       .  A
C1226      H1231   1.084       .  S
C1227      C1228   1.404       .  A
C1227      C1359   1.492       .  S
C1228      C1229   1.403       .  A
C1228      H1232   1.084       .  S
C1229      C1230   1.401       .  A
C1229      C1366   1.488       .  S
C1230      H1233   1.084       .  S
C1234      C1235   1.404       .  A
C1234      C1239   1.409       .  A
C1234      C1358   1.438       .  S
C1235      C1236   1.397       .  A
C1235      H1240   1.085       .  S
C1236      C1237   1.404       .  A
C1236      C1372   1.481       .  S
C1237      C1238   1.401       .  A
C1237      H1241   1.085       .  S
C1238      C1239   1.405       .  A
C1238      C1360   1.481   1_545  S
C1239      H1242   1.084       .  S
C1243      C1244   1.405       .  A
C1243      C1248   1.406       .  A
C1243      C1356   1.434       .  S
C1244      C1245   1.398       .  A
C1244      H1249   1.084       .  S
C1245      C1246   1.400       .  A
C1245      C1351   1.472       .  S
C1246      C1247   1.404       .  A
C1246      H1250   1.085       .  S
C1247      C1248   1.400       .  A
C1247      C1347   1.484       .  S
C1248      H1251   1.084       .  S
C1252      C1253   1.411       .  A
C1252      C1257   1.405       .  A
C1252      C1345   1.440       .  S
C1253      C1254   1.405       .  A
C1253      H1258   1.084       .  S
C1254      C1255   1.402       .  A
C1254      C1352   1.487       .  S
C1255      C1256   1.393       .  A
C1255      H1259   1.085       .  S
C1256      C1257   1.398       .  A
C1256      C1341   1.467       .  S
C1257      H1260   1.084       .  S
C1261      C1262   1.411       .  A
C1261      C1266   1.407       .  A
C1261      C1340   1.442       .  S
C1262      C1263   1.406       .  A
C1262      H1267   1.083       .  S
C1263      C1264   1.395       .  A
C1263      C1348   1.477       .  S
C1264      C1265   1.400       .  A
C1264      H1268   1.086       .  S
C1265      C1266   1.399       .  A
C1265      C1336   1.480       .  S
C1266      H1269   1.084       .  S
C1270      C1271   1.404       .  A
C1270      C1275   1.405       .  A
C1270      C1334   1.432       .  S
C1271      C1272   1.397       .  A
C1271      H1276   1.084       .  S
C1272      C1273   1.403       .  A
C1272      C1342   1.480       .  S
C1273      C1274   1.399       .  A
C1273      H1277   1.085       .  S
C1274      C1275   1.400       .  A
C1274      C1335   1.473       .  S
C1275      H1278   1.084       .  S
O1279      C1290   1.291       .  A
O1280      C1291   1.287       .  A
O1281      C1292   1.287       .  A
O1281     Eu1287   2.446       .  S
O1282      C1293   1.289       .  A
O1283      C1293   1.287       .  A
O1284      C1292   1.292       .  A
O1285      C1291   1.289       .  A
O1285     Eu1287   2.458       .  S
O1286      C1290   1.289       .  A
O1286     Eu1755   2.454       .  S
Eu1287     O1754   2.461   1_545  S
Eu1287     O1531   2.352   1_545  S
Eu1287     O1757   2.358   1_545  S
Eu1287     O1295   2.357       .  S
O1289     Eu1755   2.356       .  S
C1290      C1403   1.436       .  S
C1291      C1393   1.430       .  S
C1292      C1357   1.434       .  S
C1293      C1380   1.431       .  S
H1294      O1295   0.966       .  S
H1296      O1297   0.966       .  S
O1297     Eu1521   2.357   1_556  S
O1298      C1321   1.288       .  A
O1298     Eu1314   2.452       .  S
O1299      C1322   1.290       .  A
O1299     Eu1315   2.460       .  S
O1300      C1323   1.288       .  A
O1300     Eu1316   2.453       .  S
O1301      C1324   1.288       .  A
O1301     Eu1317   2.450       .  S
O1302      C1325   1.292       .  A
O1302     Eu1785   2.472       .  S
O1303      C1326   1.289       .  A
O1303     Eu1784   2.455       .  S
O1304      C1327   1.290       .  A
O1304     Eu1318   2.462       .  S
O1305      C1328   1.291       .  A
O1306      C1327   1.292       .  A
O1306     Eu1316   2.470       .  S
O1307      C1328   1.287       .  A
O1307     Eu1317   2.444       .  S
O1308      C1323   1.292       .  A
O1308     Eu1314   2.470       .  S
O1309      C1326   1.288       .  A
O1309     Eu1315   2.447       .  S
O1310      C1325   1.287       .  A
O1311      C1324   1.289       .  A
O1312      C1321   1.290       .  A
O1312     Eu1318   2.462       .  S
O1313      C1322   1.290       .  A
O1313     Eu1786   2.460       .  S
Eu1314     O1320   2.349       .  S
Eu1315     O1330   2.359       .  S
Eu1316     O1771   2.449   1_545  S
Eu1316     O1798   2.357   1_545  S
Eu1316     O1320   2.353       .  S
Eu1317     O1770   2.458   1_545  S
Eu1317     O1787   2.352   1_545  S
Eu1317     O1332   2.349       .  S
Eu1318     O1781   2.453   1_545  S
Eu1318     O1553   2.354   1_545  S
Eu1318     O1798   2.362   1_545  S
Eu1318     O1320   2.353       .  S
O1319     Eu1785   2.353       .  S
O1319     Eu1552   2.351       .  S
C1321      C1388   1.433       .  S
C1322      C1382   1.434       .  S
C1323      C1339   1.438       .  S
C1324      C1355   1.429       .  S
C1325      C1346   1.436       .  S
C1326      C1333   1.428       .  S
C1327      C1364   1.441       .  S
C1328      C1370   1.433       .  S
H1329      O1330   0.966       .  S
O1330     Eu1784   2.352       .  S
O1330     Eu1786   2.359       .  S
H1331      O1332   0.965       .  S
C1333      C1334   1.202       .  T
C1335      C1336   1.344       .  D
C1336      H1338   1.086       .  S
C1339      C1340   1.208       .  T
C1341      C1342   1.340       .  D
C1341      H1343   1.088       .  S
C1342      H1344   1.087       .  S
C1345      C1346   1.206       .  T
C1347      C1348   1.342       .  D
C1347      H1349   1.086       .  S
C1348      H1350   1.089       .  S
C1351      C1352   1.346       .  D
C1351      H1353   1.087       .  S
C1352      H1354   1.087       .  S
C1355      C1356   1.203       .  T
C1357      C1358   1.205       .  T
C1359      C1360   1.348   1_545  D
C1359      H1361   1.086       .  S
C1360      H1830   1.087       .  S
H1362      C1828   1.087       .  S
C1363      C1364   1.209       .  T
C1365      C1366   1.345   1_565  D
C1365      H1367   1.088       .  S
C1366      H1368   1.086       .  S
C1369      C1370   1.205       .  T
C1371      C1372   1.341   1_565  D
C1371      H1373   1.088       .  S
C1372      H1374   1.087       .  S
C1375      C1376   1.341   1_545  D
C1375      H1377   1.087       .  S
C1376      H1846   1.088       .  S
H1378      C1844   1.088       .  S
C1379      C1380   1.203       .  T
C1381      C1382   1.206       .  T
C1383      C1384   1.342   1_554  D
C1384      H1386   1.087       .  S
C1387      C1388   1.205       .  T
C1389      C1390   1.341   1_554  D
C1390      H1392   1.087       .  S
C1393      C1394   1.203       .  T
C1395      C1396   1.343   1_556  D
C1395      H1397   1.086       .  S
C1399      C1400   1.343   1_554  D
C1400      H1402   1.086       .  S
C1403      C1404   1.207       .  T
C1405      C1406   1.409       .  A
C1405      C1410   1.409   1_556  A
C1405      C1638   1.442   1_556  S
C1406      C1641   1.403       .  A
C1406      H1411   1.084       .  S
C1407      C1640   1.401       .  A
C1407      C1408   1.401       .  A
C1407      C1634   1.483       .  S
C1408      C1409   1.395       .  A
C1408      H1412   1.085       .  S
C1409      C1644   1.408       .  A
C1409      C1629   1.480       .  S
C1410      C1643   1.401   1_554  A
C1410      H1413   1.084       .  S
C1414      C1415   1.408       .  A
C1414      C1419   1.405   1_554  A
C1414      C1628   1.441       .  S
C1415      C1650   1.404   1_554  A
C1415      H1420   1.084       .  S
C1416      C1649   1.402       .  A
C1416      C1417   1.399       .  A
C1416      C1633   1.475       .  S
C1417      C1418   1.399       .  A
C1417      H1421   1.084       .  S
C1418      C1653   1.393       .  A
C1418      C1624   1.470       .  S
C1419      C1652   1.400       .  A
C1419      H1422   1.084       .  S
C1423      C1424   1.404       .  A
C1423      C1428   1.403       .  A
C1423      C1621   1.433   1_554  S
C1424      C1659   1.398       .  A
C1424      H1429   1.083   1_554  S
C1425      C1658   1.395       .  A
C1425      C1426   1.393       .  A
C1425      C1623   1.465       .  S
C1426      C1427   1.395       .  A
C1426      H1430   1.085       .  S
C1427      C1662   1.409       .  A
C1427      C1617   1.478       .  S
C1428      C1661   1.399       .  A
C1428      H1431   1.084       .  S
C1432      C1433   1.409   1_556  A
C1432      C1437   1.407       .  A
C1432      C1615   1.439       .  S
C1433      C1668   1.403       .  A
C1433      H1438   1.081       .  S
C1434      C1667   1.402       .  A
C1434      C1435   1.409       .  A
C1434      C1630   1.490       .  S
C1435      C1436   1.408       .  A
C1435      H1439   1.084       .  S
C1436      C1671   1.398       .  A
C1436      C1618   1.486       .  S
C1437      C1670   1.400   1_556  A
C1437      H1440   1.088       .  S
C1441      C1442   1.407       .  A
C1441      C1446   1.406       .  A
C1441      C1613   1.439       .  S
C1442      C1443   1.401       .  A
C1442      H1447   1.084       .  S
C1443      C1444   1.405       .  A
C1443      C1609   1.488       .  S
C1444      C1445   1.405       .  A
C1444      H1448   1.084       .  S
C1445      C1446   1.400       .  A
C1445      C1605   1.486       .  S
C1446      H1449   1.084       .  S
C1450      C1451   1.410       .  A
C1450      C1455   1.405       .  A
C1450      C1603   1.440       .  S
C1451      C1452   1.406       .  A
C1451      H1456   1.084       .  S
C1452      C1453   1.399       .  A
C1452      C1610   1.479       .  S
C1453      C1454   1.395       .  A
C1453      H1457   1.085       .  S
C1454      C1455   1.399       .  A
C1454      C1599   1.472       .  S
C1455      H1458   1.084       .  S
C1459      C1460   1.407       .  A
C1459      C1464   1.405       .  A
C1459      C1597   1.437       .  S
C1460      C1461   1.402       .  A
C1460      H1465   1.084       .  S
C1461      C1462   1.399       .  A
C1461      C1593   1.472       .  S
C1462      C1463   1.398       .  A
C1462      H1466   1.086       .  S
C1463      C1464   1.398       .  A
C1463      C1600   1.473       .  S
C1464      H1467   1.084       .  S
C1468      C1469   1.409       .  A
C1468      C1473   1.408       .  A
C1468      C1592   1.442       .  S
C1469      C1470   1.403       .  A
C1469      H1474   1.084       .  S
C1470      C1471   1.396       .  A
C1470      C1606   1.476       .  S
C1471      C1472   1.402       .  A
C1471      H1475   1.085       .  S
C1472      C1473   1.401       .  A
C1472      C1594   1.485       .  S
C1473      H1476   1.084       .  S
C1477      C1478   1.409       .  A
C1477      C1482   1.406       .  A
C1477      C1590   1.438       .  S
C1478      C1479   1.404       .  A
C1478      H1483   1.084       .  S
C1479      C1480   1.395       .  A
C1479      C1585   1.474       .  S
C1480      C1481   1.401       .  A
C1480      H1484   1.085       .  S
C1481      C1482   1.398       .  A
C1481      C1581   1.479       .  S
C1482      H1485   1.084       .  S
C1486      C1487   1.403       .  A
C1486      C1491   1.408       .  A
C1486      C1579   1.439       .  S
C1487      C1488   1.398       .  A
C1487      H1492   1.084       .  S
C1488      C1489   1.406       .  A
C1488      C1586   1.485       .  S
C1489      C1490   1.407       .  A
C1489      H1493   1.083       .  S
C1490      C1491   1.404       .  A
C1490      C1575   1.493       .  S
C1491      H1494   1.084       .  S
C1495      C1496   1.405       .  A
C1495      C1500   1.406       .  A
C1495      C1574   1.434       .  S
C1496      C1497   1.400       .  A
C1496      H1501   1.084       .  S
C1497      C1498   1.397       .  A
C1497      C1582   1.468       .  S
C1498      C1499   1.395       .  A
C1498      H1502   1.085       .  S
C1499      C1500   1.399       .  A
C1499      C1570   1.469       .  S
C1500      H1503   1.084       .  S
C1504      C1505   1.412       .  A
C1504      C1509   1.404       .  A
C1504      C1568   1.442       .  S
C1505      C1506   1.408       .  A
C1505      H1510   1.083       .  S
C1506      C1507   1.399       .  A
C1506      C1576   1.481       .  S
C1507      C1508   1.398       .  A
C1507      H1511   1.085       .  S
C1508      C1509   1.396       .  A
C1508      C1569   1.473       .  S
C1509      H1512   1.084       .  S
O1513      C1524   1.291       .  A
O1514      C1525   1.289       .  A
O1515      C1526   1.290       .  A
O1515     Eu1521   2.461       .  S
O1516      C1527   1.289       .  A
O1516     Eu1755   2.453       .  S
O1517      C1527   1.290       .  A
O1518      C1526   1.290       .  A
O1519      C1525   1.291       .  A
O1519     Eu1521   2.465       .  S
O1520      C1524   1.291       .  A
Eu1521     O1750   2.462   1_554  S
Eu1521     O1756   2.348   1_554  S
Eu1521     O1529   2.356       .  S
O1522     Eu1755   2.348       .  S
C1524      C1637   1.438       .  S
C1525      C1627   1.436       .  S
C1526      C1591   1.437       .  S
C1527      C1614   1.434       .  S
H1528      O1529   0.966       .  S
H1530      O1531   0.966       .  S
O1532      C1555   1.289       .  A
O1532     Eu1548   2.454       .  S
O1533      C1556   1.290       .  A
O1533     Eu1549   2.463   1_556  S
O1534      C1557   1.289       .  A
O1534     Eu1550   2.456       .  S
O1535      C1558   1.291       .  A
O1535     Eu1551   2.463       .  S
O1536      C1559   1.288       .  A
O1537      C1560   1.288       .  A
O1538      C1561   1.289       .  A
O1538     Eu1552   2.458   1_554  S
O1539      C1562   1.289       .  A
O1539     Eu1786   2.454       .  S
O1540      C1561   1.289       .  A
O1540     Eu1550   2.456       .  S
O1541      C1562   1.291       .  A
O1541     Eu1551   2.464       .  S
O1542      C1557   1.288       .  A
O1542     Eu1548   2.452   1_554  S
O1543      C1560   1.293       .  A
O1543     Eu1549   2.474       .  S
O1544      C1559   1.291       .  A
O1544     Eu1783   2.466       .  S
O1545      C1558   1.288       .  A
O1545     Eu1782   2.450       .  S
O1546      C1555   1.288       .  A
O1546     Eu1552   2.449       .  S
O1547      C1556   1.289       .  A
Eu1548     O1779   2.455       .  S
Eu1548     O1800   2.353       .  S
Eu1548     O1554   2.353   1_556  S
Eu1549     O1778   2.464   1_554  S
Eu1549     O1787   2.352   1_554  S
Eu1549     O1564   2.354       .  S
Eu1550     O1554   2.357       .  S
Eu1551     O1566   2.356       .  S
Eu1552     O1773   2.461       .  S
Eu1552     O1800   2.354       .  S
Eu1552     O1554   2.356   1_556  S
O1553     Eu1783   2.360       .  S
C1555      C1622   1.429       .  S
C1556      C1616   1.435       .  S
C1557      C1573   1.430       .  S
C1558      C1589   1.433       .  S
C1559      C1580   1.435       .  S
C1560      C1567   1.438       .  S
C1561      C1598   1.433       .  S
C1562      C1604   1.436       .  S
H1563      O1564   0.967       .  S
H1565      O1566   0.966       .  S
O1566     Eu1782   2.353       .  S
O1566     Eu1786   2.350       .  S
C1567      C1568   1.208       .  T
C1569      C1570   1.340       .  D
C1570      H1572   1.088       .  S
C1573      C1574   1.203       .  T
C1575      C1576   1.346       .  D
C1575      H1577   1.086       .  S
C1576      H1578   1.087       .  S
C1579      C1580   1.206       .  T
C1581      C1582   1.342       .  D
C1581      H1583   1.087       .  S
C1582      H1584   1.088       .  S
C1585      C1586   1.342       .  D
C1585      H1587   1.088       .  S
C1586      H1588   1.086       .  S
C1589      C1590   1.205       .  T
C1591      C1592   1.207       .  T
C1593      C1594   1.345       .  D
C1593      H1595   1.087       .  S
C1597      C1598   1.205       .  T
C1599      C1600   1.340       .  D
C1599      H1601   1.088       .  S
C1600      H1602   1.087       .  S
C1603      C1604   1.206       .  T
C1605      C1606   1.343       .  D
C1605      H1607   1.086       .  S
C1606      H1608   1.088       .  S
C1609      C1610   1.345       .  D
C1609      H1611   1.086       .  S
C1613      C1614   1.206       .  T
C1615      C1616   1.206       .  T
C1617      C1618   1.341       .  D
C1617      H1853   1.088       .  S
C1618      H1620   1.086       .  S
H1619      C1851   1.088       .  S
C1621      C1622   1.202       .  T
C1623      C1624   1.338       .  D
C1623      H1859   1.088       .  S
C1624      H1626   1.087       .  S
H1625      C1857   1.087       .  S
C1627      C1628   1.207       .  T
C1629      C1630   1.343       .  D
C1629      H1631   1.088       .  S
C1630      H1866   1.086       .  S
H1632      C1864   1.089       .  S
C1633      C1634   1.344       .  D
C1633      H1869   1.088       .  S
C1634      H1636   1.086       .  S
H1635      C1867   1.086       .  S
C1637      C1638   1.208       .  T
C1639      C1640   1.408       .  A
C1639      C1644   1.413       .  A
C1639      C1872   1.448       .  S
C1640      H1645   1.084       .  S
C1641      C1642   1.396       .  A
C1641      C1868   1.475       .  S
C1642      C1643   1.402       .  A
C1642      H1646   1.085       .  S
C1643      C1863   1.484   1_556  S
C1644      H1647   1.083       .  S
C1648      C1649   1.407       .  A
C1648      C1653   1.401       .  A
C1648      C1862   1.430       .  S
C1649      H1654   1.084       .  S
C1650      C1651   1.405       .  A
C1650      C1867   1.488   1_556  S
C1651      C1652   1.396       .  A
C1651      H1655   1.084       .  S
C1652      C1858   1.472       .  S
C1653      H1656   1.084       .  S
C1657      C1658   1.404       .  A
C1657      C1662   1.413       .  A
C1657      C1855   1.442       .  S
C1658      H1663   1.084       .  S
C1659      C1660   1.399       .  A
C1659      C1857   1.474       .  S
C1660      C1661   1.400       .  A
C1660      H1664   1.086       .  S
C1661      C1851   1.468       .  S
C1662      H1665   1.083       .  S
C1666      C1667   1.406       .  A
C1666      C1671   1.403       .  A
C1666      C1849   1.437       .  S
C1667      H1672   1.084       .  S
C1668      C1669   1.395       .  A
C1668      C1864   1.476       .  S
C1669      C1670   1.402       .  A
C1669      H1673   1.084       .  S
C1670      C1852   1.481   1_554  S
C1671      H1674   1.084       .  S
C1675      C1676   1.405       .  A
C1675      C1680   1.408       .  A
C1675      C1847   1.437       .  S
C1676      C1677   1.398       .  A
C1676      H1681   1.084       .  S
C1677      C1678   1.401       .  A
C1677      C1843   1.476       .  S
C1678      C1679   1.395       .  A
C1678      H1682   1.085       .  S
C1679      C1680   1.401       .  A
C1679      C1839   1.471       .  S
C1680      H1683   1.084       .  S
C1684      C1685   1.404       .  A
C1684      C1689   1.409       .  A
C1684      C1837   1.436       .  S
C1685      C1686   1.397       .  A
C1685      H1690   1.084       .  S
C1686      C1687   1.395       .  A
C1686      C1844   1.467       .  S
C1687      C1688   1.397       .  A
C1687      H1691   1.086       .  S
C1688      C1689   1.404       .  A
C1688      C1833   1.475       .  S
C1689      H1692   1.084       .  S
C1693      C1694   1.411       .  A
C1693      C1698   1.405       .  A
C1693      C1831   1.443       .  S
C1694      C1695   1.406       .  A
C1694      H1699   1.084       .  S
C1695      C1696   1.405       .  A
C1695      C1827   1.494       .  S
C1696      C1697   1.403       .  A
C1696      H1700   1.084       .  S
C1697      C1698   1.398       .  A
C1697      C1834   1.483       .  S
C1698      H1701   1.084       .  S
C1702      C1703   1.405       .  A
C1702      C1707   1.411       .  A
C1702      C1826   1.442       .  S
C1703      C1704   1.398       .  A
C1703      H1708   1.084       .  S
C1704      C1705   1.403       .  A
C1704      C1840   1.482       .  S
C1705      C1706   1.401       .  A
C1705      H1709   1.085       .  S
C1706      C1707   1.407       .  A
C1706      C1828   1.483       .  S
C1707      H1710   1.084       .  S
C1711      C1712   1.410       .  A
C1711      C1716   1.406       .  A
C1711      C1824   1.440       .  S
C1712      C1713   1.405       .  A
C1712      H1717   1.084       .  S
C1713      C1714   1.396       .  A
C1713      C1819   1.477       .  S
C1714      C1715   1.401       .  A
C1714      H1718   1.085       .  S
C1715      C1716   1.399       .  A
C1715      C1815   1.480       .  S
C1716      H1719   1.084       .  S
C1720      C1721   1.405       .  A
C1720      C1725   1.407       .  A
C1720      C1813   1.441       .  S
C1721      C1722   1.400       .  A
C1721      H1726   1.084       .  S
C1722      C1723   1.406       .  A
C1722      C1820   1.488       .  S
C1723      C1724   1.407       .  A
C1723      H1727   1.083       .  S
C1724      C1725   1.403       .  A
C1724      C1809   1.492       .  S
C1725      H1728   1.084       .  S
C1729      C1730   1.407       .  A
C1729      C1734   1.405       .  A
C1729      C1808   1.435       .  S
C1730      C1731   1.401       .  A
C1730      H1735   1.084       .  S
C1731      C1732   1.396       .  A
C1731      C1816   1.470       .  S
C1732      C1733   1.395       .  A
C1732      H1736   1.086       .  S
C1733      C1734   1.399       .  A
C1733      C1804   1.468       .  S
C1734      H1737   1.084       .  S
C1738      C1739   1.412       .  A
C1738      C1743   1.404       .  A
C1738      C1802   1.441       .  S
C1739      C1740   1.408       .  A
C1739      H1744   1.083       .  S
C1740      C1741   1.398       .  A
C1740      C1810   1.481       .  S
C1741      C1742   1.399       .  A
C1741      H1745   1.085       .  S
C1742      C1743   1.396       .  A
C1742      C1803   1.475       .  S
C1743      H1746   1.084       .  S
O1747      C1758   1.293       .  A
O1748      C1759   1.285       .  A
O1749      C1760   1.288       .  A
O1749     Eu1755   2.453       .  S
O1750      C1761   1.290       .  A
O1751      C1761   1.288       .  A
O1752      C1760   1.293       .  A
O1753      C1759   1.290       .  A
O1753     Eu1755   2.461       .  S
O1754      C1758   1.290       .  A
Eu1755     O1763   2.352       .  S
C1758      C1871   1.444       .  S
C1759      C1861   1.426       .  S
C1760      C1825   1.438       .  S
C1761      C1848   1.432       .  S
H1762      O1763   0.966       .  S
H1764      O1765   0.966       .  S
O1766      C1789   1.287       .  A
O1766     Eu1782   2.446       .  S
O1767      C1790   1.290       .  A
O1767     Eu1783   2.461       .  S
O1768      C1791   1.288       .  A
O1768     Eu1784   2.448       .  S
O1769      C1792   1.291       .  A
O1769     Eu1785   2.464       .  S
O1770      C1793   1.289       .  A
O1771      C1794   1.288       .  A
O1772      C1795   1.288       .  A
O1772     Eu1786   2.451       .  S
O1773      C1796   1.290       .  A
O1774      C1795   1.292       .  A
O1774     Eu1784   2.474       .  S
O1775      C1796   1.288       .  A
O1775     Eu1785   2.449       .  S
O1776      C1791   1.290       .  A
O1776     Eu1782   2.461       .  S
O1777      C1794   1.292       .  A
O1777     Eu1783   2.473       .  S
O1778      C1793   1.291       .  A
O1779      C1792   1.289       .  A
O1780      C1789   1.292       .  A
O1780     Eu1786   2.475       .  S
O1781      C1790   1.289       .  A
Eu1782     O1788   2.348       .  S
Eu1783     O1798   2.360       .  S
Eu1784     O1788   2.356       .  S
Eu1785     O1800   2.355       .  S
Eu1786     O1788   2.351       .  S
C1789      C1856   1.437       .  S
C1790      C1850   1.432       .  S
C1791      C1807   1.431       .  S
C1792      C1823   1.436       .  S
C1793      C1814   1.436       .  S
C1794      C1801   1.437       .  S
C1795      C1832   1.438       .  S
C1796      C1838   1.432       .  S
H1797      O1798   0.966       .  S
H1799      O1800   0.965       .  S
C1801      C1802   1.207       .  T
C1803      C1804   1.340       .  D
C1804      H1806   1.088       .  S
C1807      C1808   1.203       .  T
C1809      C1810   1.346       .  D
C1809      H1811   1.086       .  S
C1810      H1812   1.087       .  S
C1813      C1814   1.207       .  T
C1815      C1816   1.342       .  D
C1815      H1817   1.086       .  S
C1816      H1818   1.088       .  S
C1819      C1820   1.343       .  D
C1819      H1821   1.088       .  S
C1820      H1822   1.086       .  S
C1823      C1824   1.206       .  T
C1825      C1826   1.208       .  T
C1827      C1828   1.349       .  D
C1827      H1829   1.086       .  S
C1831      C1832   1.208       .  T
C1833      C1834   1.343       .  D
C1833      H1835   1.088       .  S
C1834      H1836   1.086       .  S
C1837      C1838   1.204       .  T
C1839      C1840   1.341       .  D
C1839      H1841   1.088       .  S
C1840      H1842   1.087       .  S
C1843      C1844   1.341       .  D
C1843      H1845   1.086       .  S
C1847      C1848   1.204       .  T
C1849      C1850   1.204       .  T
C1851      C1852   1.343   1_554  D
C1852      H1854   1.090       .  S
C1855      C1856   1.207       .  T
C1857      C1858   1.339   1_554  D
C1858      H1860   1.087       .  S
C1861      C1862   1.200       .  T
C1863      C1864   1.343       .  D
C1863      H1865   1.086   1_554  S
C1867      C1868   1.344   1_554  D
C1868      H1870   1.087       .  S
C1871      C1872   1.211       .  T
