geometry optimzed in LAMMPS
_audit_creation_date              2020-12-01 
_audit_creation_method            'lammps2cif' 
_symmetry_space_group_name_H-M    'P1' 
_symmetry_Int_Tables_number       1 
_symmetry_cell_setting            triclinic 
loop_ 
_symmetry_equiv_pos_as_xyz 
  x,y,z 
_cell_length_a                    40.14127487 
_cell_length_b                    40.16348253782071 
_cell_length_c                    40.13104935696425 
_cell_angle_alpha                 89.97867929257639 
_cell_angle_beta                  90.10842414532542 
_cell_angle_gamma                 90.05396960718097 
loop_ 
_atom_site_label 
_atom_site_type_symbol 
_atom_site_fract_x 
_atom_site_fract_y 
_atom_site_fract_z 
_atom_site_charge 
C1          C  0.33628276  0.33547531  0.33478606     0.47400
H2          H  0.32079025  0.31914113  0.31875065    -0.01600
C3          C  0.37358703  0.37291437  0.37219292     0.47400
H4          H  0.38960899  0.38896557  0.38817333    -0.01600
C5          C  0.35939389  0.35890021  0.31495521    -0.15300
C6          C  0.31612078  0.35821048  0.35840804    -0.15100
C7          C  0.35951614  0.31562830  0.35806253    -0.15500
C8          C  0.37905675  0.37839078  0.33488413    -0.15500
C9          C  0.33624893  0.37818263  0.37773470    -0.15000
C10         C  0.37902964  0.33565510  0.37773703    -0.15300
C11         C  0.37364137  0.11407655  0.37153974     0.47400
H12         H  0.38988500  0.09821528  0.38746458    -0.01600
C13         C  0.33584193  0.15123237  0.33423408     0.47400
H14         H  0.31966979  0.16684626  0.31807963    -0.01600
C15         C  0.33645017  0.10814811  0.37698885    -0.15300
C16         C  0.37862940  0.15145496  0.37722012    -0.15100
C17         C  0.37896655  0.10874992  0.33421402    -0.15500
C18         C  0.31619202  0.12765866  0.35747668    -0.15500
C19         C  0.35875948  0.17133549  0.35769774    -0.15000
C20         C  0.35926912  0.12824283  0.31441045    -0.15300
C21         C  0.15210044  0.15159367  0.33643601     0.47400
H22         H  0.16847367  0.16768345  0.32108316    -0.01600
C23         C  0.11458676  0.11403633  0.37343590     0.47400
H24         H  0.09848753  0.09801797  0.38932233    -0.01600
C25         C  0.12936536  0.12797168  0.31606431    -0.15300
C26         C  0.17192488  0.12832798  0.35974560    -0.15500
C27         C  0.12856241  0.17131355  0.35950809    -0.15500
C28         C  0.10936506  0.10858498  0.33604707    -0.15500
C29         C  0.15184919  0.10857406  0.37909063    -0.15000
C30         C  0.10906980  0.15128004  0.37898865    -0.15300
C31         C  0.11389565  0.37247915  0.37342179     0.47400
H32         H  0.09823994  0.38866960  0.38953323    -0.01600
C33         C  0.15035267  0.33468826  0.33569151     0.47400
H34         H  0.16538759  0.31804311  0.31959656    -0.01600
C35         C  0.15134221  0.37743582  0.37863136    -0.15300
C36         C  0.10810630  0.33528963  0.37903239    -0.15100
C37         C  0.10807321  0.37803049  0.33614422    -0.15500
C38         C  0.17106015  0.35729747  0.35916893    -0.15500
C39         C  0.12716454  0.31518150  0.35922726    -0.15000
C40         C  0.12722140  0.35832561  0.31596915    -0.15300
C41         C  0.11331891  0.37258751  0.11431357     0.47400
H42         H  0.09735165  0.38855904  0.09821930    -0.01600
C43         C  0.15054521  0.33519932  0.15192065     0.47400
H44         H  0.16630844  0.31919692  0.16810298    -0.01600
C45         C  0.15063176  0.37885408  0.10981006    -0.15300
C46         C  0.10688826  0.37717750  0.15158984    -0.15100
C47         C  0.10876873  0.33533089  0.10799421    -0.15500
C48         C  0.17059860  0.35928282  0.12957390    -0.15500
C49         C  0.12635916  0.35757418  0.17164595    -0.15000
C50         C  0.12826168  0.31536323  0.12764423    -0.15300
C51         C  0.37243386  0.37316847  0.11385766     0.47400
H52         H  0.38843655  0.38916906  0.09785916    -0.01600
C53         C  0.33509866  0.33580895  0.15128001     0.47400
H54         H  0.31918816  0.32003011  0.16749233    -0.01600
C55         C  0.33509223  0.37919591  0.10898120    -0.15300
C56         C  0.37721833  0.33588835  0.10778979    -0.15100
C57         C  0.37864542  0.37796498  0.15115465    -0.15500
C58         C  0.31509924  0.35959520  0.12865101    -0.15500
C59         C  0.35760045  0.31586049  0.12736979    -0.15000
C60         C  0.35907860  0.35839000  0.17104006    -0.15300
C61         C  0.11385851  0.11387894  0.11356445     0.47400
H62         H  0.09765376  0.09789925  0.09769723    -0.01600
C63         C  0.15163467  0.15136283  0.15046001     0.47400
H64         H  0.16812362  0.16739780  0.16578863    -0.01600
C65         C  0.15108655  0.10837360  0.10780211    -0.15300
C66         C  0.10835022  0.15117473  0.10804048    -0.15100
C67         C  0.10886692  0.10832069  0.15096489    -0.15500
C68         C  0.17132222  0.12811796  0.12707744    -0.15500
C69         C  0.12800021  0.17119308  0.12746556    -0.15000
C70         C  0.12898937  0.12773218  0.17089338    -0.15300
C71         C  0.37311998  0.11411534  0.11358514     0.47400
H72         H  0.38920337  0.09823722  0.09758883    -0.01600
C73         C  0.33567840  0.15127390  0.15105443     0.47400
H74         H  0.31965647  0.16684475  0.16732020    -0.01600
C75         C  0.37868574  0.10865308  0.15089764    -0.15300
C76         C  0.37819809  0.15151920  0.10795735    -0.15100
C77         C  0.33584647  0.10830542  0.10824275    -0.15500
C78         C  0.35916354  0.12817225  0.17076251    -0.15500
C79         C  0.35849321  0.17141268  0.12758406    -0.15000
C80         C  0.31577182  0.12782330  0.12786119    -0.15300
O81         O  0.02682565  0.45987406  0.19624985    -0.69900
O82         O  0.45988216  0.02712197  0.19619154    -0.70100
O83         O  0.45971179  0.45995606  0.19644588    -0.69900
O84         O  0.02703066  0.02709448  0.19590041    -0.69900
O85         O  0.02647139  0.02669071  0.14170428    -0.69900
O86         O  0.45971845  0.45996808  0.14224065    -0.69900
O87         O  0.45975730  0.02666369  0.14198735    -0.69900
O88         O  0.02638245  0.45990977  0.14204420    -0.70100
V89         V  0.49336937  0.49351249  0.19520486     1.35200
V90         V  0.49309810  0.49331475  0.14311130     1.35200
C91         C  0.03778610  0.44848990  0.16904307     0.79400
C92         C  0.44856395  0.03822444  0.16896276     0.79400
C93         C  0.44842909  0.44863271  0.16927676     0.79300
C94         C  0.03800780  0.03827816  0.16857526     0.79300
O95         O  0.02691893  0.46073636  0.34533370    -0.69900
O96         O  0.45993128  0.02717500  0.34413431    -0.70100
O97         O  0.46014572  0.46047928  0.34435993    -0.69900
O98         O  0.02660139  0.02749047  0.34521165    -0.69900
O99         O  0.02757326  0.02755715  0.29101613    -0.69900
O100        O  0.46057420  0.46016452  0.29016064    -0.69900
O101        O  0.46050107  0.02729671  0.28992902    -0.69900
O102        O  0.02776497  0.46040904  0.29113941    -0.70100
V103        V  0.49342186  0.49395752  0.34365686     1.35200
V104        V  0.49410234  0.49384696  0.29156715     1.35200
C105        C  0.03867160  0.44930223  0.31853212     0.79400
C106        C  0.44894423  0.03853718  0.31693718     0.79400
C107        C  0.44904340  0.44900953  0.31726132     0.79300
C108        C  0.03828304  0.03893662  0.31838436     0.79300
O109        O  0.19575594  0.45937089  0.45983954    -0.69900
O110        O  0.19533358  0.02618719  0.02720141    -0.70100
O111        O  0.19532808  0.45904859  0.02705117    -0.69900
O112        O  0.19575778  0.02645476  0.46019894    -0.69900
O113        O  0.14156033  0.02622015  0.45994561    -0.69900
O114        O  0.14114057  0.45917990  0.02641411    -0.69900
O115        O  0.14113985  0.02594012  0.02658720    -0.69900
O116        O  0.14156092  0.45952619  0.45959987    -0.70100
V117        V  0.19453867  0.49273487  0.49357083     1.35200
V118        V  0.14245290  0.49268914  0.49315013     1.35200
C119        C  0.16861417  0.44827659  0.44830670     0.79400
C120        C  0.16806127  0.03746616  0.03807013     0.79400
C121        C  0.16805643  0.44782889  0.03806775     0.79300
C122        C  0.16862536  0.03778481  0.44893816     0.79300
O123        O  0.45971007  0.14235379  0.02616660    -0.69900
O124        O  0.02662677  0.14228360  0.45975801    -0.70100
O125        O  0.02638195  0.14225232  0.02649062    -0.69900
O126        O  0.45995610  0.14237586  0.45935445    -0.69900
O127        O  0.45989130  0.19653728  0.45907844    -0.69900
O128        O  0.02671183  0.19641433  0.02676285    -0.69900
O129        O  0.02702875  0.19644549  0.45956802    -0.69900
O130        O  0.45957923  0.19651293  0.02636823    -0.70100
V131        V  0.49315732  0.14343175  0.49293853     1.35200
V132        V  0.49328260  0.19548581  0.49293996     1.35200
C133        C  0.44839613  0.16930895  0.03762042     0.79400
C134        C  0.03816637  0.16921617  0.44841850     0.79400
C135        C  0.03778065  0.16917461  0.03801680     0.79300
C136        C  0.44875388  0.16933815  0.44775639     0.79300
O137        O  0.29172243  0.45985818  0.02593624    -0.69900
O138        O  0.29256598  0.02716900  0.45903814    -0.70100
O139        O  0.29234417  0.46013384  0.45876382    -0.69900
O140        O  0.29201887  0.02697463  0.02612252    -0.69900
O141        O  0.34620880  0.02662353  0.02650791    -0.69900
O142        O  0.34653373  0.46014033  0.45951076    -0.69900
O143        O  0.34675442  0.02686563  0.45974371    -0.69900
O144        O  0.34591178  0.45984914  0.02634302    -0.70100
V145        V  0.29319032  0.49351505  0.49248485     1.35200
V146        V  0.34527108  0.49335863  0.49302597     1.35200
C147        C  0.31875908  0.44853894  0.03744599     0.79400
C148        C  0.31987523  0.03836417  0.44813289     0.79400
C149        C  0.31959114  0.44895378  0.44772786     0.79300
C150        C  0.31916560  0.03813975  0.03757595     0.79300
O151        O  0.45991657  0.34544806  0.46024047    -0.69900
O152        O  0.02651634  0.34520809  0.02716296    -0.70100
O153        O  0.02655712  0.34520248  0.46047220    -0.69900
O154        O  0.45978917  0.34550919  0.02701313    -0.69900
O155        O  0.45933192  0.29134242  0.02725749    -0.69900
O156        O  0.02648130  0.29103118  0.46031241    -0.69900
O157        O  0.02642829  0.29103342  0.02736761    -0.69900
O158        O  0.45947533  0.29127516  0.46011442    -0.70100
V159        V  0.49317683  0.34424995  0.49373912     1.35200
V160        V  0.49292131  0.29218307  0.49378097     1.35200
C161        C  0.44856133  0.31849453  0.44873621     0.79400
C162        C  0.03781692  0.31817177  0.03849655     0.79400
C163        C  0.03779496  0.31817837  0.44911443     0.79300
C164        C  0.44826451  0.31858698  0.03840589     0.79300
C165        C  0.32454049  0.08455452  0.08365727    -0.11400
C166        C  0.31977083  0.06356196  0.06270400    -0.12900
C167        C  0.42332676  0.16844696  0.06309629    -0.11400
C168        C  0.40253995  0.16317431  0.08412767    -0.12900
C169        C  0.42344559  0.06361988  0.16812238    -0.11400
C170        C  0.40268063  0.08464154  0.16280706    -0.12900
C171        C  0.22623213  0.15772306  0.12728285    -0.11400
C172        C  0.20837081  0.12765762  0.12643422     0.10700
C173        C  0.22605483  0.09747809  0.12644036    -0.11400
C174        C  0.26089388  0.09740521  0.12670920    -0.11400
C175        C  0.27874525  0.12750737  0.12703816     0.10700
C176        C  0.26107442  0.15764788  0.12760653    -0.11400
H177        H  0.21322222  0.18133739  0.12737372     0.14700
H178        H  0.21298552  0.07390621  0.12710348     0.14700
H179        H  0.27383572  0.07378652  0.12749021     0.14700
H180        H  0.27424121  0.18119977  0.12792037     0.14700
C181        C  0.06292834  0.16823334  0.06345966    -0.11400
C182        C  0.08387490  0.16285385  0.08434246    -0.12900
C183        C  0.16225402  0.08436380  0.08351043    -0.11400
C184        C  0.16717650  0.06310849  0.06291372    -0.12900
C185        C  0.08413462  0.08469676  0.16236231    -0.11400
C186        C  0.06315379  0.06376624  0.16751248    -0.12900
C187        C  0.35687814  0.26112471  0.15700666    -0.11400
C188        C  0.35802403  0.27884553  0.12690753     0.10700
C189        C  0.35853697  0.26104474  0.09676359    -0.11400
C190        C  0.35882450  0.22620516  0.09682455    -0.11400
C191        C  0.35848127  0.20847985  0.12702743     0.10700
C192        C  0.35689238  0.22634506  0.15704136    -0.11400
H193        H  0.35632488  0.27418210  0.18060833     0.14700
H194        H  0.35804069  0.27401267  0.07312250     0.14700
H195        H  0.35853227  0.21317659  0.07322506     0.14700
H196        H  0.35593143  0.21348548  0.18065390     0.14700
C197        C  0.42294990  0.31945192  0.06355493    -0.11400
C198        C  0.40180983  0.32447158  0.08422704    -0.12900
C199        C  0.31909582  0.42335530  0.06285944    -0.11400
C200        C  0.32368657  0.40270728  0.08420865    -0.12900
C201        C  0.40249275  0.40221200  0.16301210    -0.11400
C202        C  0.42323890  0.42325162  0.16849457    -0.12900
C203        C  0.12327196  0.26076395  0.15673100    -0.11400
C204        C  0.12757494  0.27845063  0.12696934     0.10700
C205        C  0.13144511  0.26078197  0.09700101    -0.11400
C206        C  0.13136529  0.22588793  0.09698159    -0.11400
C207        C  0.12711330  0.20819312  0.12688018     0.10700
C208        C  0.12260465  0.22599298  0.15657683    -0.11400
H209        H  0.11978149  0.27390866  0.18003484     0.14700
H210        H  0.13516961  0.27397082  0.07376304     0.14700
H211        H  0.13511443  0.21271829  0.07374957     0.14700
H212        H  0.11773395  0.21310051  0.17957625     0.14700
C213        C  0.22546859  0.32971611  0.12983100    -0.11400
C214        C  0.20765404  0.35976931  0.12918003     0.10700
C215        C  0.22539597  0.38995347  0.12882196    -0.11400
C216        C  0.26024712  0.39003890  0.12840000    -0.11400
C217        C  0.27804529  0.35994174  0.12838709     0.10700
C218        C  0.26030698  0.32980179  0.12943873    -0.11400
H219        H  0.21242955  0.30609602  0.13012654     0.14700
H220        H  0.21235410  0.41351713  0.12952181     0.14700
H221        H  0.27325547  0.41365380  0.12883067     0.14700
H222        H  0.27340530  0.30623661  0.12951360     0.14700
C223        C  0.06328063  0.31877306  0.06352077    -0.11400
C224        C  0.08448621  0.32371937  0.08418220    -0.12900
C225        C  0.16213064  0.40228012  0.08499568    -0.11400
C226        C  0.16715499  0.42276314  0.06358770    -0.12900
C227        C  0.06269445  0.42289805  0.16827377    -0.11400
C228        C  0.08321209  0.40161344  0.16315969    -0.12900
C229        C  0.09619413  0.35531388  0.26141200    -0.11400
C230        C  0.12630042  0.35912935  0.27892884     0.10700
C231        C  0.15593194  0.36298465  0.26089880    -0.11400
C232        C  0.15581771  0.36217408  0.22611814    -0.11400
C233        C  0.12585934  0.35837043  0.20859684     0.10700
C234        C  0.09595295  0.35507920  0.22647552    -0.11400
H235        H  0.07299825  0.35200738  0.27474804     0.14700
H236        H  0.17911834  0.36748528  0.27360840     0.14700
H237        H  0.17909957  0.36518827  0.21283151     0.14700
H238        H  0.07255676  0.35168947  0.21343105     0.14700
C239        C  0.08390463  0.32384264  0.40297328    -0.11400
C240        C  0.06299520  0.31883737  0.42387450    -0.12900
C241        C  0.08456484  0.40278967  0.32473145    -0.11400
C242        C  0.06390651  0.42399778  0.31966692    -0.12900
C243        C  0.16798006  0.42323897  0.42283393    -0.11400
C244        C  0.16296813  0.40220215  0.40200032    -0.12900
C245        C  0.13670190  0.15598521  0.26076078    -0.11400
C246        C  0.13002219  0.12687603  0.27883251     0.10700
C247        C  0.12549946  0.09702110  0.26100638    -0.11400
C248        C  0.12538700  0.09695759  0.22609082    -0.11400
C249        C  0.12983977  0.12674123  0.20813687     0.10700
C250        C  0.13664614  0.15590612  0.22610002    -0.11400
H251        H  0.14195473  0.17917150  0.27311676     0.14700
H252        H  0.12289739  0.07350568  0.27385367     0.14700
H253        H  0.12269435  0.07339948  0.21334930     0.14700
H254        H  0.14193451  0.17902013  0.21367658     0.14700
C255        C  0.13195320  0.22593847  0.38982311    -0.11400
C256        C  0.12734938  0.20822647  0.35999762     0.10700
C257        C  0.12183476  0.22589314  0.33036992    -0.11400
C258        C  0.12176188  0.26065476  0.33023931    -0.11400
C259        C  0.12637924  0.27835045  0.35994887     0.10700
C260        C  0.13133809  0.26079191  0.38982410    -0.11400
H261        H  0.13647587  0.21280920  0.41296707     0.14700
H262        H  0.11681060  0.21287853  0.30743872     0.14700
H263        H  0.11762929  0.27378036  0.30700478     0.14700
H264        H  0.13545379  0.27405154  0.41296340     0.14700
C265        C  0.06337353  0.06439837  0.31952102    -0.11400
C266        C  0.08445229  0.08519089  0.32468351    -0.12900
C267        C  0.16804822  0.06345531  0.42411052    -0.11400
C268        C  0.16320346  0.08465060  0.40341352    -0.12900
C269        C  0.06353166  0.16829690  0.42328724    -0.11400
C270        C  0.08458366  0.16292650  0.40259309    -0.12900
C271        C  0.37363260  0.15441865  0.25997309    -0.11400
C272        C  0.36001151  0.12757057  0.27760459     0.10700
C273        C  0.34702567  0.10026767  0.26004260    -0.11400
C274        C  0.34705916  0.10021524  0.22513987    -0.11400
C275        C  0.36006916  0.12747118  0.20755716     0.10700
C276        C  0.37363812  0.15438135  0.22515917    -0.11400
H277        H  0.38479352  0.17510890  0.27312103     0.14700
H278        H  0.33656880  0.07926605  0.27336149     0.14700
H279        H  0.33660291  0.07918748  0.21183755     0.14700
H280        H  0.38473588  0.17507851  0.21198103     0.14700
C281        C  0.26166288  0.15761166  0.35899758    -0.11400
C282        C  0.27922008  0.12741269  0.35869894     0.10700
C283        C  0.26131429  0.09734553  0.35868675    -0.11400
C284        C  0.22648602  0.09751240  0.35937632    -0.11400
C285        C  0.20893051  0.12775009  0.36015381     0.10700
C286        C  0.22684231  0.15777914  0.35973824    -0.11400
H287        H  0.27491590  0.18111812  0.35900541     0.14700
H288        H  0.27420879  0.07372360  0.35736335     0.14700
H289        H  0.21329729  0.07400971  0.35845752     0.14700
H290        H  0.21388092  0.18141576  0.36024843     0.14700
C291        C  0.32539600  0.08450603  0.40175527    -0.11400
C292        C  0.32076514  0.06368299  0.42289956    -0.12900
C293        C  0.42379245  0.06387123  0.31726762    -0.11400
C294        C  0.40297079  0.08486073  0.32228507    -0.12900
C295        C  0.42380114  0.16848088  0.42210473    -0.11400
C296        C  0.40302213  0.16314939  0.40102726    -0.12900
C297        C  0.33028508  0.36508321  0.26024525    -0.11400
C298        C  0.35988295  0.35968184  0.27803005     0.10700
C299        C  0.38959211  0.35432238  0.26043129    -0.11400
C300        C  0.38953155  0.35415972  0.22555250    -0.11400
C301        C  0.35970835  0.35908368  0.20788281     0.10700
C302        C  0.33008972  0.36439149  0.22546422    -0.11400
H303        H  0.30744378  0.37058084  0.27317431     0.14700
H304        H  0.41268294  0.34982027  0.27367912     0.14700
H305        H  0.41259718  0.34962866  0.21236182     0.14700
H306        H  0.30691795  0.36858946  0.21222840     0.14700
C307        C  0.26127198  0.36134983  0.38966535    -0.11400
C308        C  0.27893318  0.35728467  0.35967721     0.10700
C309        C  0.26076467  0.35051342  0.33059173    -0.11400
C310        C  0.22612627  0.34996085  0.33084263    -0.11400
C311        C  0.20828985  0.35646151  0.36009959     0.10700
C312        C  0.22636237  0.36095634  0.38987166    -0.11400
H313        H  0.27425502  0.36403177  0.41313843     0.14700
H314        H  0.27303024  0.34566679  0.30728360     0.14700
H315        H  0.21360783  0.34451875  0.30778931     0.14700
H316        H  0.21371268  0.36339626  0.41350032     0.14700
C317        C  0.35870157  0.26102620  0.32837419    -0.11400
C318        C  0.35979430  0.27865235  0.35851826     0.10700
C319        C  0.35951663  0.26083089  0.38865511    -0.11400
C320        C  0.35913449  0.22599960  0.38854593    -0.11400
C321        C  0.35889990  0.20836100  0.35830355     0.10700
C322        C  0.35799983  0.22626930  0.32829144    -0.11400
H323        H  0.35864016  0.27415263  0.30479001     0.14700
H324        H  0.35889439  0.27378641  0.41229009     0.14700
H325        H  0.35834293  0.21290360  0.41210850     0.14700
H326        H  0.35706191  0.21345563  0.30466666     0.14700
C327        C  0.32512967  0.40293039  0.40131102    -0.11400
C328        C  0.32039566  0.42393213  0.42222778    -0.12900
C329        C  0.40321227  0.32424527  0.40174360    -0.11400
C330        C  0.42378327  0.31927650  0.42303293    -0.12900
C331        C  0.40285256  0.40273699  0.32312351    -0.11400
C332        C  0.42373003  0.42371182  0.31786988    -0.12900
C333        C  0.33627644  0.33547763  0.83478839     0.47400
H334        H  0.32078493  0.31914250  0.81875297    -0.01600
C335        C  0.37357856  0.37291870  0.87219544     0.47400
H336        H  0.38959968  0.38897068  0.88817591    -0.01600
C337        C  0.35938753  0.35890266  0.81495760    -0.15300
C338        C  0.31611313  0.35821280  0.85840935    -0.15100
C339        C  0.35951007  0.31563193  0.85806570    -0.15500
C340        C  0.37904919  0.37839438  0.83488669    -0.15500
C341        C  0.33624018  0.37818599  0.87773604    -0.15000
C342        C  0.37902231  0.33565973  0.87774033    -0.15300
C343        C  0.37365083  0.11408087  0.87153938     0.47400
H344        H  0.38989491  0.09822000  0.88746418    -0.01600
C345        C  0.33585021  0.15123559  0.83423383     0.47400
H346        H  0.31967761  0.16684906  0.81807944    -0.01600
C347        C  0.33645979  0.10815204  0.87698923    -0.15300
C348        C  0.37863845  0.15145940  0.87721920    -0.15100
C349        C  0.37897526  0.10875364  0.83421365    -0.15500
C350        C  0.31620098  0.12766200  0.85747709    -0.15500
C351        C  0.35876789  0.17133930  0.85769685    -0.15000
C352        C  0.35927713  0.12824586  0.81441012    -0.15300
C353        C  0.15210716  0.15159087  0.83643547     0.47400
H354        H  0.16847926  0.16768139  0.82108220    -0.01600
C355        C  0.11459600  0.11403196  0.87343634     0.47400
H356        H  0.09849784  0.09801295  0.88932322    -0.01600
C357        C  0.12937256  0.12796770  0.81606439    -0.15300
C358        C  0.17193330  0.12832622  0.85974481    -0.15500
C359        C  0.12856847  0.17130977  0.85950789    -0.15500
C360        C  0.10937363  0.10858014  0.83604772    -0.15500
C361        C  0.15185879  0.10857157  0.87909031    -0.15000
C362        C  0.10907727  0.15127538  0.87898895    -0.15300
C363        C  0.11388690  0.37247493  0.87341732     0.47400
H364        H  0.09822990  0.38866487  0.88952800    -0.01600
C365        C  0.15034685  0.33468521  0.83568874     0.47400
H366        H  0.16538300  0.31804049  0.81959450    -0.01600
C367        C  0.15133300  0.37743347  0.87862820    -0.15300
C368        C  0.10809928  0.33528521  0.87902844    -0.15100
C369        C  0.10806559  0.37802550  0.83613941    -0.15500
C370        C  0.17105250  0.35729578  0.85916654    -0.15500
C371        C  0.12715889  0.31517768  0.85922401    -0.15000
C372        C  0.12721537  0.35832130  0.81596529    -0.15300
C373        C  0.11332449  0.37258851  0.61430983     0.47400
H374        H  0.09735789  0.38856046  0.59821532    -0.01600
C375        C  0.15054915  0.33519926  0.65191754     0.47400
H376        H  0.16631169  0.31919656  0.66810027    -0.01600
C377        C  0.15063755  0.37885459  0.60980754    -0.15300
C378        C  0.10689277  0.37717809  0.65158595    -0.15100
C379        C  0.10877391  0.33533199  0.60798999    -0.15500
C380        C  0.17060352  0.35928282  0.62957169    -0.15500
C381        C  0.12636263  0.35757406  0.67164230    -0.15000
C382        C  0.12826599  0.31536373  0.62764028    -0.15300
C383        C  0.37243962  0.37316514  0.61386034     0.47400
H384        H  0.38844341  0.38916538  0.59786260    -0.01600
C385        C  0.33510192  0.33580639  0.65128086     0.47400
H386        H  0.31919027  0.32002789  0.66749236    -0.01600
C387        C  0.33509836  0.37919385  0.60898239    -0.15300
C388        C  0.37722313  0.33588488  0.60779227    -0.15100
C389        C  0.37864988  0.37796113  0.65115763    -0.15500
C390        C  0.31510409  0.35959340  0.62865123    -0.15500
C391        C  0.35760391  0.31585738  0.62737131    -0.15000
C392        C  0.35908168  0.35838659  0.67104216    -0.15300
C393        C  0.11385183  0.11387953  0.61356514     0.47400
H394        H  0.09764670  0.09789992  0.59769823    -0.01600
C395        C  0.15162906  0.15136307  0.65045989     0.47400
H396        H  0.16811844  0.16739785  0.66578825    -0.01600
C397        C  0.15107978  0.10837366  0.60780246    -0.15300
C398        C  0.10834404  0.15117535  0.60804090    -0.15100
C399        C  0.10886069  0.10832159  0.65096568    -0.15500
C400        C  0.17131597  0.12811774  0.62707750    -0.15500
C401        C  0.12799480  0.17119351  0.62746542    -0.15000
C402        C  0.12898383  0.12773283  0.67089367    -0.15300
C403        C  0.37311286  0.11411094  0.61358423     0.47400
H404        H  0.38919534  0.09823243  0.59758739    -0.01600
C405        C  0.33567354  0.15127053  0.65105475     0.47400
H406        H  0.31965251  0.16684169  0.66732109    -0.01600
C407        C  0.37868023  0.10864899  0.65089653    -0.15300
C408        C  0.37819126  0.15151471  0.60795578    -0.15100
C409        C  0.33583911  0.10830149  0.60824354    -0.15500
C410        C  0.35915940  0.12816881  0.67076208    -0.15500
C411        C  0.35848760  0.17140887  0.62758312    -0.15000
C412        C  0.31576558  0.12781982  0.62786266    -0.15300
O413        O  0.02683148  0.45987478  0.69624822    -0.69900
O414        O  0.45987753  0.02711919  0.69619109    -0.70100
O415        O  0.45971649  0.45995306  0.69644779    -0.69900
O416        O  0.02702487  0.02709482  0.69590108    -0.69900
O417        O  0.02646730  0.02669017  0.64170494    -0.69900
O418        O  0.45972030  0.45996500  0.64224256    -0.69900
O419        O  0.45975342  0.02666013  0.64198692    -0.69900
O420        O  0.02638475  0.45990926  0.64204260    -0.70100
V421        V  0.49337236  0.49351113  0.69520487     1.35200
V422        V  0.49309896  0.49331272  0.64311132     1.35200
C423        C  0.03779044  0.44849026  0.66904097     0.79400
C424        C  0.44855932  0.03822091  0.66896200     0.79400
C425        C  0.44843274  0.44862930  0.66927928     0.79300
C426        C  0.03800255  0.03827835  0.66857610     0.79300
O427        O  0.02691612  0.46073368  0.84532993    -0.69900
O428        O  0.45993579  0.02717512  0.84413438    -0.70100
O429        O  0.46014332  0.46047901  0.84436059    -0.69900
O430        O  0.02660627  0.02748822  0.84521249    -0.69900
O431        O  0.02757906  0.02755466  0.79101701    -0.69900
O432        O  0.46056901  0.46016435  0.79016127    -0.69900
O433        O  0.46050566  0.02729640  0.78992908    -0.69900
O434        O  0.02775867  0.46040615  0.79113556    -0.70100
V435        V  0.49342087  0.49395578  0.84365582     1.35200
V436        V  0.49409875  0.49384526  0.79156606     1.35200
C437        C  0.03866650  0.44929893  0.81852761     0.79400
C438        C  0.44894942  0.03853766  0.81693714     0.79400
C439        C  0.44903901  0.44900990  0.81726253     0.79300
C440        C  0.03828902  0.03893368  0.81838539     0.79300
O441        O  0.19574642  0.45936638  0.95983830    -0.69900
O442        O  0.19532766  0.02619002  0.52720073    -0.70100
O443        O  0.19533585  0.45905241  0.52705227    -0.69900
O444        O  0.19576495  0.02645167  0.96019960    -0.69900
O445        O  0.14156749  0.02622087  0.95994538    -0.69900
O446        O  0.14114833  0.45918118  0.52641390    -0.69900
O447        O  0.14113391  0.02593921  0.52658752    -0.69900
O448        O  0.14155142  0.45952459  0.95959970    -0.70100
V449        V  0.19453178  0.49273067  0.99356946     1.35200
V450        V  0.14244602  0.49268768  0.99314999     1.35200
C451        C  0.16860385  0.44827363  0.94830580     0.79400
C452        C  0.16805479  0.03746695  0.53807002     0.79400
C453        C  0.16806441  0.44783121  0.53806794     0.79300
C454        C  0.16863353  0.03778360  0.94893839     0.79300
O455        O  0.45970505  0.14235123  0.52616481    -0.69900
O456        O  0.02663196  0.14228074  0.95975867    -0.70100
O457        O  0.02637701  0.14225269  0.52648994    -0.69900
O458        O  0.45996099  0.14237807  0.95935610    -0.69900
O459        O  0.45989957  0.19653950  0.95908011    -0.69900
O460        O  0.02670397  0.19641470  0.52676458    -0.69900
O461        O  0.02703596  0.19644260  0.95956635    -0.69900
O462        O  0.45957028  0.19651036  0.52636637    -0.70100
V463        V  0.49316230  0.14343185  0.99294018     1.35200
V464        V  0.49329108  0.19548590  0.99294137     1.35200
C465        C  0.44838900  0.16930559  0.53761842     0.79400
C466        C  0.03817260  0.16921239  0.94841801     0.79400
C467        C  0.03777424  0.16917506  0.53801735     0.79300
C468        C  0.44876061  0.16934108  0.94775786     0.79300
O469        O  0.29172958  0.45985430  0.52593512    -0.69900
O470        O  0.29257325  0.02717430  0.95903763    -0.70100
O471        O  0.29233610  0.46013854  0.95876498    -0.69900
O472        O  0.29201236  0.02696964  0.52612321    -0.69900
O473        O  0.34620232  0.02662194  0.52650856    -0.69900
O474        O  0.34652568  0.46014224  0.95951091    -0.69900
O475        O  0.34676167  0.02686629  0.95974310    -0.69900
O476        O  0.34591891  0.45984871  0.52634307    -0.70100
V477        V  0.29318469  0.49351926  0.99248648     1.35200
V478        V  0.34526547  0.49335978  0.99302684     1.35200
C479        C  0.31876668  0.44853698  0.53744575     0.79400
C480        C  0.31988343  0.03836723  0.94813246     0.79400
C481        C  0.31958232  0.44895729  0.94772833     0.79300
C482        C  0.31915840  0.03813636  0.53757672     0.79300
O483        O  0.45991498  0.34545022  0.96024013    -0.69900
O484        O  0.02651766  0.34520908  0.52716216    -0.70100
O485        O  0.02655629  0.34520020  0.96047275    -0.69900
O486        O  0.45979065  0.34550788  0.52701370    -0.69900
O487        O  0.45933718  0.29134108  0.52725909    -0.69900
O488        O  0.02647811  0.29102891  0.96031393    -0.69900
O489        O  0.02643188  0.29103439  0.52736578    -0.69900
O490        O  0.45947070  0.29127734  0.96011305    -0.70100
V491        V  0.49317531  0.34424956  0.99373858     1.35200
V492        V  0.49291652  0.29218270  0.99377980     1.35200
C493        C  0.44855792  0.31849755  0.94873569     0.79400
C494        C  0.03781964  0.31817299  0.53849490     0.79400
C495        C  0.03779264  0.31817539  0.94911513     0.79300
C496        C  0.44826813  0.31858508  0.53840723     0.79300
C497        C  0.32453192  0.08455077  0.58365843    -0.11400
C498        C  0.31976222  0.06355832  0.56270504    -0.12900
C499        C  0.42331943  0.16844196  0.56309398    -0.11400
C500        C  0.40253280  0.16316905  0.58412545    -0.12900
C501        C  0.42344041  0.06361579  0.66812086    -0.11400
C502        C  0.40267538  0.08463733  0.66280526    -0.12900
C503        C  0.22622655  0.15772146  0.62728442    -0.11400
C504        C  0.20836454  0.12765645  0.62643483     0.10700
C505        C  0.22604784  0.09747651  0.62644131    -0.11400
C506        C  0.26088690  0.09740285  0.62671106    -0.11400
C507        C  0.27873896  0.12750463  0.62704053     0.10700
C508        C  0.26106881  0.15764551  0.62760901    -0.11400
H509        H  0.21321721  0.18133611  0.62737520     0.14700
H510        H  0.21297796  0.07390492  0.62710391     0.14700
H511        H  0.27382817  0.07378386  0.62749206     0.14700
H512        H  0.27423609  0.18119711  0.62792325     0.14700
C513        C  0.06292194  0.16823399  0.56346026    -0.11400
C514        C  0.08386863  0.16285459  0.58434298    -0.12900
C515        C  0.16224667  0.08436388  0.58351071    -0.11400
C516        C  0.16716901  0.06310887  0.56291379    -0.12900
C517        C  0.08412873  0.08469760  0.66236366    -0.11400
C518        C  0.06314806  0.06376691  0.66751374    -0.12900
C519        C  0.35687685  0.26112095  0.65700693    -0.11400
C520        C  0.35802547  0.27884230  0.62690824     0.10700
C521        C  0.35853829  0.26104196  0.59676403    -0.11400
C522        C  0.35882304  0.22620227  0.59682436    -0.11400
C523        C  0.35847729  0.20847629  0.62702690     0.10700
C524        C  0.35688831  0.22634128  0.65704100    -0.11400
H525        H  0.35632345  0.27417791  0.68060883     0.14700
H526        H  0.35804392  0.27401035  0.57312315     0.14700
H527        H  0.35853067  0.21317426  0.57322458     0.14700
H528        H  0.35592508  0.21348158  0.68065332     0.14700
C529        C  0.42295417  0.31944873  0.56355696    -0.11400
C530        C  0.40181445  0.32446777  0.58422955    -0.12900
C531        C  0.31910427  0.42335367  0.56285977    -0.11400
C532        C  0.32369434  0.40270575  0.58420936    -0.12900
C533        C  0.40249708  0.40220785  0.66301600    -0.11400
C534        C  0.42324314  0.42324759  0.66849835    -0.12900
C535        C  0.12327511  0.26076542  0.65672865    -0.11400
C536        C  0.12757720  0.27845108  0.62696624     0.10700
C537        C  0.13144385  0.26078131  0.59699806    -0.11400
C538        C  0.13136119  0.22588727  0.59697951    -0.11400
C539        C  0.12710993  0.20819356  0.62687887     0.10700
C540        C  0.12260518  0.22599454  0.65657543    -0.11400
H541        H  0.11978730  0.27391091  0.68003245     0.14700
H542        H  0.13516776  0.27396923  0.57375947     0.14700
H543        H  0.13510776  0.21271675  0.57374756     0.14700
H544        H  0.11773568  0.21310303  0.67957563     0.14700
C545        C  0.22547311  0.32971548  0.62982937    -0.11400
C546        C  0.20765897  0.35976888  0.62917858     0.10700
C547        C  0.22540130  0.38995284  0.62882075    -0.11400
C548        C  0.26025244  0.39003788  0.62839883    -0.11400
C549        C  0.27805019  0.35994051  0.62838597     0.10700
C550        C  0.26031148  0.32980076  0.62943724    -0.11400
H551        H  0.21243378  0.30609555  0.63012464     0.14700
H552        H  0.21235975  0.41351668  0.62952073     0.14700
H553        H  0.27326111  0.41365260  0.62882972     0.14700
H554        H  0.27340948  0.30623540  0.62951210     0.14700
C555        C  0.06328418  0.31877478  0.56351812    -0.11400
C556        C  0.08449061  0.32372110  0.58417859    -0.12900
C557        C  0.16213765  0.40228109  0.58499419    -0.11400
C558        C  0.16716312  0.42276477  0.56358715    -0.12900
C559        C  0.06269913  0.42289874  0.66827054    -0.11400
C560        C  0.08321660  0.40161410  0.66315575    -0.12900
C561        C  0.09619208  0.35530728  0.76140610    -0.11400
C562        C  0.12629680  0.35912573  0.77892499     0.10700
C563        C  0.15592907  0.36298524  0.76089703    -0.11400
C564        C  0.15581726  0.36217554  0.72611634    -0.11400
C565        C  0.12586047  0.35836891  0.70859306     0.10700
C566        C  0.09595325  0.35507369  0.72646961    -0.11400
H567        H  0.07299573  0.35199787  0.77474059     0.14700
H568        H  0.17911405  0.36748860  0.77360834     0.14700
H569        H  0.17909959  0.36519283  0.71283122     0.14700
H570        H  0.07255832  0.35168191  0.71342338     0.14700
C571        C  0.08389940  0.32383759  0.90297084    -0.11400
C572        C  0.06299160  0.31883288  0.92387384    -0.12900
C573        C  0.08455777  0.40278453  0.82472544    -0.11400
C574        C  0.06390020  0.42399332  0.81966095    -0.12900
C575        C  0.16796817  0.42323646  0.92283240    -0.11400
C576        C  0.16295690  0.40220007  0.90199807    -0.12900
C577        C  0.13670431  0.15598297  0.76076112    -0.11400
C578        C  0.13002686  0.12687307  0.77883252     0.10700
C579        C  0.12550262  0.09701870  0.76100579    -0.11400
C580        C  0.12538626  0.09695643  0.72609024    -0.11400
C581        C  0.12983665  0.12674080  0.70813698     0.10700
C582        C  0.13664437  0.15590518  0.72610040    -0.11400
H583        H  0.14195841  0.17916884  0.77311728     0.14700
H584        H  0.12290223  0.07350278  0.77385252     0.14700
H585        H  0.12269256  0.07339877  0.71334810     0.14700
H586        H  0.14193066  0.17901978  0.71367719     0.14700
C587        C  0.13195619  0.22593569  0.88982150    -0.11400
C588        C  0.12735249  0.20822265  0.85999660     0.10700
C589        C  0.12183428  0.22588825  0.83036891    -0.11400
C590        C  0.12175837  0.26064989  0.83023760    -0.11400
C591        C  0.12637596  0.27834659  0.85994653     0.10700
C592        C  0.13133788  0.26078909  0.88982185    -0.11400
H593        H  0.13648118  0.21280726  0.91296550     0.14700
H594        H  0.11680959  0.21287276  0.80743836     0.14700
H595        H  0.11762336  0.27377468  0.80700305     0.14700
H596        H  0.13545364  0.27404958  0.91296064     0.14700
C597        C  0.06338085  0.06439423  0.81952241    -0.11400
C598        C  0.08446038  0.08518606  0.82468486    -0.12900
C599        C  0.16805856  0.06345393  0.92411065    -0.11400
C600        C  0.16321430  0.08464896  0.90341335    -0.12900
C601        C  0.06353806  0.16829130  0.92328696    -0.11400
C602        C  0.08459042  0.16292079  0.90259319    -0.12900
C603        C  0.37363468  0.15441979  0.75997034    -0.11400
C604        C  0.36001713  0.12757153  0.77760423     0.10700
C605        C  0.34703178  0.10026686  0.76004456    -0.11400
C606        C  0.34706192  0.10021302  0.72514181    -0.11400
C607        C  0.36006818  0.12746925  0.70755674     0.10700
C608        C  0.37363724  0.15438088  0.72515644    -0.11400
H609        H  0.38479511  0.17511150  0.77311639     0.14700
H610        H  0.33657761  0.07926508  0.77336531     0.14700
H611        H  0.33660596  0.07918395  0.71184134     0.14700
H612        H  0.38473293  0.17507796  0.71197651     0.14700
C613        C  0.26167060  0.15761323  0.85899660    -0.11400
C614        C  0.27922894  0.12741488  0.85869912     0.10700
C615        C  0.26132416  0.09734712  0.85868729    -0.11400
C616        C  0.22649585  0.09751279  0.85937622    -0.11400
C617        C  0.20893912  0.12774985  0.86015266     0.10700
C618        C  0.22684993  0.15777951  0.85973657    -0.11400
H619        H  0.27492281  0.18112016  0.85900403     0.14700
H620        H  0.27421948  0.07372560  0.85736461     0.14700
H621        H  0.21330804  0.07400959  0.85845781     0.14700
H622        H  0.21388770  0.18141568  0.86024598     0.14700
C623        C  0.32540636  0.08450970  0.90175565    -0.11400
C624        C  0.32077525  0.06368638  0.92289957    -0.12900
C625        C  0.42379910  0.06387306  0.81726732    -0.11400
C626        C  0.40297853  0.08486360  0.82228466    -0.12900
C627        C  0.42380853  0.16848534  0.92210545    -0.11400
C628        C  0.40303028  0.16315443  0.90102704    -0.12900
C629        C  0.33028154  0.36507900  0.76024534    -0.11400
C630        C  0.35987887  0.35968207  0.77803237     0.10700
C631        C  0.38958974  0.35432484  0.76043576    -0.11400
C632        C  0.38953149  0.35416063  0.72555697    -0.11400
C633        C  0.35970895  0.35908081  0.70788504     0.10700
C634        C  0.33008855  0.36438579  0.72546436    -0.11400
H635        H  0.30743876  0.37057460  0.77317255     0.14700
H636        H  0.41268021  0.34982575  0.77368523     0.14700
H637        H  0.41259852  0.34963146  0.71236809     0.14700
H638        H  0.30691715  0.36858075  0.71222692     0.14700
C639        C  0.26126340  0.36135192  0.88966512    -0.11400
C640        C  0.27892551  0.35728624  0.85967756     0.10700
C641        C  0.26075792  0.35051391  0.83059180    -0.11400
C642        C  0.22611954  0.34996060  0.83084179    -0.11400
C643        C  0.20828218  0.35646147  0.86009815     0.10700
C644        C  0.22635380  0.36095762  0.88987054    -0.11400
H645        H  0.27424574  0.36403476  0.91313848     0.14700
H646        H  0.27302420  0.34566683  0.80728418     0.14700
H647        H  0.21360189  0.34451749  0.80778824     0.14700
H648        H  0.21370348  0.36339770  0.91349882     0.14700
C649        C  0.35870320  0.26103068  0.82837567    -0.11400
C650        C  0.35979190  0.27865604  0.85852033     0.10700
C651        C  0.35951511  0.26083371  0.88865667    -0.11400
C652        C  0.35913719  0.22600239  0.88854648    -0.11400
C653        C  0.35890605  0.20836471  0.85830358     0.10700
C654        C  0.35800582  0.22627370  0.82829190    -0.11400
H655        H  0.35864159  0.27415784  0.80479191     0.14700
H656        H  0.35889036  0.27378855  0.91229197     0.14700
H657        H  0.35834596  0.21290557  0.91210861     0.14700
H658        H  0.35707086  0.21346048  0.80466674     0.14700
C659        C  0.32511960  0.40293405  0.90131142    -0.11400
C660        C  0.32038535  0.42393594  0.92222796    -0.12900
C661        C  0.40320635  0.32425083  0.90174585    -0.11400
C662        C  0.42377869  0.31928138  0.92303367    -0.12900
C663        C  0.40284577  0.40273990  0.82312625    -0.11400
C664        C  0.42372424  0.42371363  0.81787226    -0.12900
C665        C  0.33627565  0.83547363  0.33478354     0.47400
H666        H  0.32078402  0.81913784  0.31874887    -0.01600
C667        C  0.37357766  0.87291652  0.37218903     0.47400
H668        H  0.38959875  0.88896931  0.38816872    -0.01600
C669        C  0.35938567  0.85889882  0.31495171    -0.15300
C670        C  0.31611244  0.85820901  0.35840440    -0.15100
C671        C  0.35951023  0.81562916  0.35806112    -0.15500
C672        C  0.37904706  0.87839139  0.33488003    -0.15500
C673        C  0.33623937  0.87818299  0.37773046    -0.15000
C674        C  0.37902245  0.83565794  0.37773471    -0.15300
C675        C  0.37365404  0.61407871  0.37154329     0.47400
H676        H  0.38989816  0.59821820  0.38746841    -0.01600
C677        C  0.33585338  0.65123265  0.33423710     0.47400
H678        H  0.31968079  0.66684575  0.31808232    -0.01600
C679        C  0.33646300  0.60814939  0.37699265    -0.15300
C680        C  0.37864092  0.65145745  0.37722289    -0.15100
C681        C  0.37897910  0.60875138  0.33421768    -0.15500
C682        C  0.31620419  0.62765918  0.35748038    -0.15500
C683        C  0.35877041  0.67133684  0.35770001    -0.15000
C684        C  0.35928109  0.62824345  0.31441397    -0.15300
C685        C  0.15211252  0.65159625  0.33643939     0.47400
H686        H  0.16848563  0.66768628  0.32108664    -0.01600
C687        C  0.11459836  0.61403849  0.37343846     0.47400
H688        H  0.09849890  0.59801997  0.38932450    -0.01600
C689        C  0.12937848  0.62797370  0.31606723    -0.15300
C690        C  0.17193676  0.62833096  0.35974985    -0.15500
C691        C  0.12857309  0.67131580  0.35951047    -0.15500
C692        C  0.10937791  0.60858667  0.33604949    -0.15500
C693        C  0.15186067  0.60857705  0.37909454    -0.15000
C694        C  0.10908043  0.65128207  0.37899071    -0.15300
C695        C  0.11388787  0.87248074  0.37341649     0.47400
H696        H  0.09823226  0.88867087  0.38952833    -0.01600
C697        C  0.15034480  0.83469049  0.33568552     0.47400
H698        H  0.16537974  0.81804561  0.31959030    -0.01600
C699        C  0.15133452  0.87743815  0.37862511    -0.15300
C700        C  0.10809978  0.83529111  0.37902766    -0.15100
C701        C  0.10806408  0.87803156  0.33613902    -0.15500
C702        C  0.17105229  0.85730008  0.35916225    -0.15500
C703        C  0.12715810  0.81518334  0.35922219    -0.15000
C704        C  0.12721250  0.85832716  0.31596370    -0.15300
C705        C  0.11331685  0.87258796  0.11430798     0.47400
H706        H  0.09735038  0.88855944  0.09821288    -0.01600
C707        C  0.15054129  0.83519997  0.15191712     0.47400
H708        H  0.16630392  0.81919780  0.16810030    -0.01600
C709        C  0.15062990  0.87885480  0.10980670    -0.15300
C710        C  0.10688403  0.87717769  0.15158389    -0.15100
C711        C  0.10876725  0.83533128  0.10798841    -0.15500
C712        C  0.17059559  0.85928352  0.12957148    -0.15500
C713        C  0.12635408  0.85757463  0.17164101    -0.15000
C714        C  0.12825915  0.81536373  0.12763965    -0.15300
C715        C  0.37242940  0.87316813  0.11385378     0.47400
H716        H  0.38843204  0.88916898  0.09785548    -0.01600
C717        C  0.33509466  0.83580792  0.15127588     0.47400
H718        H  0.31918434  0.82002858  0.16748791    -0.01600
C719        C  0.33508783  0.87919533  0.10897713    -0.15300
C720        C  0.37721434  0.83588809  0.10778581    -0.15100
C721        C  0.37864061  0.87796441  0.15115091    -0.15500
C722        C  0.31509522  0.85959421  0.12864692    -0.15500
C723        C  0.35759701  0.81585996  0.12736598    -0.15000
C724        C  0.35907404  0.85838907  0.17103622    -0.15300
C725        C  0.11386156  0.61387889  0.11356925     0.47400
H726        H  0.09765625  0.59789829  0.09770352    -0.01600
C727        C  0.15163894  0.65136498  0.15046135     0.47400
H728        H  0.16812801  0.66740095  0.16578884    -0.01600
C729        C  0.15108943  0.60837375  0.10780542    -0.15300
C730        C  0.10835263  0.65117427  0.10804374    -0.15100
C731        C  0.10887172  0.60832227  0.15097018    -0.15500
C732        C  0.17132589  0.62811924  0.12707900    -0.15500
C733        C  0.12800313  0.67119375  0.12746698    -0.15000
C734        C  0.12899502  0.62773483  0.17089672    -0.15300
C735        C  0.37312436  0.61411527  0.11358966     0.47400
H736        H  0.38920761  0.59823705  0.09759332    -0.01600
C737        C  0.33568295  0.65127418  0.15105890     0.47400
H738        H  0.31966134  0.66684533  0.16732470    -0.01600
C739        C  0.37869110  0.60865396  0.15090206    -0.15300
C740        C  0.37820158  0.65151907  0.10796079    -0.15100
C741        C  0.33585081  0.60830470  0.10824836    -0.15500
C742        C  0.35916905  0.62817328  0.17076682    -0.15500
C743        C  0.35849685  0.67141264  0.12758743    -0.15000
C744        C  0.31577611  0.62782279  0.12786658    -0.15300
O745        O  0.02682109  0.95987297  0.19624376    -0.69900
O746        O  0.45988620  0.52712262  0.19619895    -0.70100
O747        O  0.45970736  0.95995571  0.19643929    -0.69900
O748        O  0.02703471  0.52709581  0.19590721    -0.69900
O749        O  0.02647847  0.52669244  0.14171107    -0.69900
O750        O  0.45971206  0.95996707  0.14223403    -0.69900
O751        O  0.45976319  0.52666476  0.14199477    -0.69900
O752        O  0.02637482  0.95990803  0.14203812    -0.70100
V753        V  0.49336502  0.99351171  0.19519667     1.35200
V754        V  0.49309203  0.99331339  0.14310310     1.35200
C755        C  0.03777993  0.94848847  0.16903651     0.79400
C756        C  0.44856895  0.53822536  0.16896985     0.79400
C757        C  0.44842363  0.94863221  0.16927074     0.79300
C758        C  0.03801334  0.53827982  0.16858274     0.79300
O759        O  0.02690675  0.96073457  0.34533087    -0.69900
O760        O  0.45994232  0.52717541  0.34413843    -0.70100
O761        O  0.46013454  0.96047908  0.34435499    -0.69900
O762        O  0.02661370  0.52749226  0.34521336    -0.69900
O763        O  0.02758579  0.52755858  0.29101787    -0.69900
O764        O  0.46056260  0.96016534  0.29015565    -0.69900
O765        O  0.46051181  0.52729616  0.28993313    -0.69900
O766        O  0.02775159  0.96040766  0.29113656    -0.70100
V767        V  0.49341076  0.99395696  0.34365231     1.35200
V768        V  0.49409118  0.99384700  0.29156257     1.35200
C769        C  0.03865889  0.94930064  0.31852894     0.79400
C770        C  0.44895521  0.53853716  0.31694117     0.79400
C771        C  0.44903194  0.94901011  0.31725622     0.79300
C772        C  0.03829553  0.53893830  0.31838606     0.79300
O773        O  0.19574933  0.95936942  0.45983677    -0.69900
O774        O  0.19533054  0.52618622  0.02720322    -0.70100
O775        O  0.19533157  0.95904942  0.02705027    -0.69900
O776        O  0.19576594  0.52645639  0.46020320    -0.69900
O777        O  0.14156850  0.52622315  0.45994908    -0.69900
O778        O  0.14114406  0.95918083  0.02641195    -0.69900
O779        O  0.14113680  0.52593945  0.02659081    -0.69900
O780        O  0.14155429  0.95952347  0.45959805    -0.70100
V781        V  0.19453181  0.99273403  0.49356746     1.35200
V782        V  0.14244603  0.99268708  0.49314752     1.35200
C783        C  0.16860759  0.94827465  0.44830428     0.79400
C784        C  0.16805872  0.53746518  0.03807305     0.79400
C785        C  0.16805960  0.94782993  0.03806631     0.79300
C786        C  0.16863398  0.53778750  0.44894240     0.79300
O787        O  0.45971234  0.64235361  0.02616914    -0.69900
O788        O  0.02663594  0.64228419  0.45975888    -0.70100
O789        O  0.02638473  0.64225107  0.02649267    -0.69900
O790        O  0.45996537  0.64237784  0.45935759    -0.69900
O791        O  0.45990064  0.69653929  0.45908358    -0.69900
O792        O  0.02671471  0.69641308  0.02676580    -0.69900
O793        O  0.02703659  0.69644607  0.45956814    -0.69900
O794        O  0.45958134  0.69651277  0.02637052    -0.70100
V795        V  0.49316622  0.64343246  0.49294199     1.35200
V796        V  0.49329189  0.69548653  0.49294498     1.35200
C797        C  0.44839818  0.66930880  0.03762266     0.79400
C798        C  0.03817495  0.66921688  0.44841901     0.79400
C799        C  0.03778329  0.66917315  0.03801944     0.79300
C800        C  0.44876332  0.66934060  0.44776044     0.79300
O801        O  0.29171826  0.95985786  0.02593097    -0.69900
O802        O  0.29258010  0.52717039  0.45904164    -0.70100
O803        O  0.29233116  0.96013237  0.45876042    -0.69900
O804        O  0.29202301  0.52697468  0.02612853    -0.69900
O805        O  0.34621298  0.52662330  0.02651325    -0.69900
O806        O  0.34652071  0.96014038  0.45950662    -0.69900
O807        O  0.34676855  0.52686569  0.45974681    -0.69900
O808        O  0.34590756  0.95984924  0.02633921    -0.70100
V809        V  0.29317688  0.99351367  0.49248155     1.35200
V810        V  0.34525763  0.99335806  0.49302239     1.35200
C811        C  0.31875468  0.94853897  0.03744174     0.79400
C812        C  0.31988953  0.53836489  0.44813626     0.79400
C813        C  0.31957832  0.94895328  0.44772384     0.79300
C814        C  0.31916993  0.53813940  0.03758178     0.79300
O815        O  0.45991297  0.84545149  0.46023649    -0.69900
O816        O  0.02651342  0.84521021  0.02715900    -0.70100
O817        O  0.02655326  0.84520499  0.46047008    -0.69900
O818        O  0.45978642  0.84551085  0.02701050    -0.69900
O819        O  0.45932916  0.79134406  0.02725446    -0.69900
O820        O  0.02647804  0.79103369  0.46031117    -0.69900
O821        O  0.02642442  0.79103553  0.02736389    -0.69900
O822        O  0.45947094  0.79127859  0.46010867    -0.70100
V823        V  0.49317279  0.84425174  0.49373546     1.35200
V824        V  0.49291639  0.79218486  0.49377571     1.35200
C825        C  0.44855729  0.81849850  0.44873145     0.79400
C826        C  0.03781393  0.81817370  0.03849226     0.79400
C827        C  0.03779143  0.81818078  0.44911276     0.79300
C828        C  0.44826169  0.81858852  0.03840295     0.79300
C829        C  0.32454490  0.58455362  0.08366330    -0.11400
C830        C  0.31977542  0.56356112  0.06271006    -0.12900
C831        C  0.42332871  0.66844689  0.06309834    -0.11400
C832        C  0.40254233  0.66317423  0.08413009    -0.12900
C833        C  0.42345078  0.56362098  0.16812851    -0.11400
C834        C  0.40268611  0.58464264  0.16281188    -0.12900
C835        C  0.22623648  0.65772365  0.12728511    -0.11400
C836        C  0.20837465  0.62765847  0.12643556     0.10700
C837        C  0.22605837  0.59747875  0.12644217    -0.11400
C838        C  0.26089748  0.59740541  0.12671269    -0.11400
C839        C  0.27874936  0.62750730  0.12704279     0.10700
C840        C  0.26107882  0.65764802  0.12761043    -0.11400
H841        H  0.21322695  0.68133818  0.12737564     0.14700
H842        H  0.21298879  0.57390702  0.12710472     0.14700
H843        H  0.27383891  0.57378652  0.12749411     0.14700
H844        H  0.27424588  0.68119974  0.12792491     0.14700
C845        C  0.06293050  0.66823148  0.06346267    -0.11400
C846        C  0.08387683  0.66285217  0.08434568    -0.12900
C847        C  0.16225543  0.58436306  0.08351391    -0.11400
C848        C  0.16717545  0.56310735  0.06291698    -0.12900
C849        C  0.08414010  0.58469860  0.16237002    -0.11400
C850        C  0.06315936  0.56376812  0.16752115    -0.12900
C851        C  0.35688212  0.76112587  0.15700581    -0.11400
C852        C  0.35802294  0.77884514  0.12690555     0.10700
C853        C  0.35853334  0.76104299  0.09676245    -0.11400
C854        C  0.35882247  0.72620340  0.09682518    -0.11400
C855        C  0.35848381  0.70847966  0.12702907     0.10700
C856        C  0.35689833  0.72634620  0.15704234    -0.11400
H857        H  0.35633112  0.77418460  0.18060683     0.14700
H858        H  0.35803395  0.77400992  0.07312085     0.14700
H859        H  0.35852809  0.71317348  0.07322644     0.14700
H860        H  0.35594138  0.71348757  0.18065562     0.14700
C861        C  0.42294675  0.81945297  0.06355160    -0.11400
C862        C  0.40180621  0.82447170  0.08422340    -0.12900
C863        C  0.31909107  0.92335545  0.06285567    -0.11400
C864        C  0.32368186  0.90270727  0.08420491    -0.12900
C865        C  0.40248739  0.90221162  0.16300839    -0.11400
C866        C  0.42323344  0.92325138  0.16848996    -0.12900
C867        C  0.12326910  0.76076549  0.15672821    -0.11400
C868        C  0.12757232  0.77845114  0.12696590     0.10700
C869        C  0.13144442  0.76078142  0.09699849    -0.11400
C870        C  0.13136660  0.72588737  0.09698068    -0.11400
C871        C  0.12711488  0.70819367  0.12688001     0.10700
C872        C  0.12260413  0.72599447  0.15657572    -0.11400
H873        H  0.11977726  0.77391103  0.18003138     0.14700
H874        H  0.13516919  0.77396946  0.07376010     0.14700
H875        H  0.13511714  0.71271684  0.07374939     0.14700
H876        H  0.11773410  0.71310254  0.17957571     0.14700
C877        C  0.22546478  0.82971608  0.12982729    -0.11400
C878        C  0.20765079  0.85976959  0.12917867     0.10700
C879        C  0.22539295  0.88995360  0.12882262    -0.11400
C880        C  0.26024399  0.89003862  0.12839975    -0.11400
C881        C  0.27804157  0.85994118  0.12838401     0.10700
C882        C  0.26030308  0.82980135  0.12943419    -0.11400
H883        H  0.21242535  0.80609618  0.13012134     0.14700
H884        H  0.21235129  0.91351734  0.12952422     0.14700
H885        H  0.27325278  0.91365326  0.12883166     0.14700
H886        H  0.27340119  0.80623603  0.12950715     0.14700
C887        C  0.06327867  0.81877444  0.06351536    -0.11400
C888        C  0.08448498  0.82371986  0.08417621    -0.12900
C889        C  0.16213060  0.90228113  0.08499349    -0.11400
C890        C  0.16715709  0.92276430  0.06358622    -0.12900
C891        C  0.06268842  0.92289690  0.16826634    -0.11400
C892        C  0.08320669  0.90161288  0.16315261    -0.12900
C893        C  0.09618652  0.85531270  0.26140603    -0.11400
C894        C  0.12629200  0.85913138  0.27892354     0.10700
C895        C  0.15592364  0.86298968  0.26089436    -0.11400
C896        C  0.15581044  0.86217866  0.22611376    -0.11400
C897        C  0.12585296  0.85837152  0.20859174     0.10700
C898        C  0.09594634  0.85507753  0.22646953    -0.11400
H899        H  0.07299067  0.85200396  0.27474157     0.14700
H900        H  0.17910928  0.86749262  0.27360473     0.14700
H901        H  0.17909236  0.86519500  0.21282768     0.14700
H902        H  0.07255090  0.85168533  0.21342434     0.14700
C903        C  0.08389997  0.82384389  0.40297027    -0.11400
C904        C  0.06299140  0.81883937  0.42387253    -0.12900
C905        C  0.08455399  0.90278943  0.32472667    -0.11400
C906        C  0.06389441  0.92399660  0.31966291    -0.12900
C907        C  0.16797339  0.92323810  0.42283055    -0.11400
C908        C  0.16296079  0.90220293  0.40199546    -0.12900
C909        C  0.13671241  0.65598829  0.26076360    -0.11400
C910        C  0.13003545  0.62687846  0.27883546     0.10700
C911        C  0.12551418  0.59702331  0.26100947    -0.11400
C912        C  0.12539963  0.59696002  0.22609398    -0.11400
C913        C  0.12984840  0.62674420  0.20814002     0.10700
C914        C  0.13665382  0.65590961  0.22610271    -0.11400
H915        H  0.14196474  0.67917469  0.27311962     0.14700
H916        H  0.12291429  0.57350770  0.27385691     0.14700
H917        H  0.12270791  0.57340184  0.21335236     0.14700
H918        H  0.14193883  0.67902420  0.21367866     0.14700
C919        C  0.13196093  0.72594265  0.38982218    -0.11400
C920        C  0.12735683  0.70822859  0.35999799     0.10700
C921        C  0.12183663  0.72589297  0.33036996    -0.11400
C922        C  0.12175883  0.76065456  0.33023764    -0.11400
C923        C  0.12637643  0.77835233  0.35994592     0.10700
C924        C  0.13134076  0.76079601  0.38982154    -0.11400
H925        H  0.13648731  0.71281505  0.41296639     0.14700
H926        H  0.11681157  0.71287649  0.30744001     0.14700
H927        H  0.11762231  0.77377846  0.30700285     0.14700
H928        H  0.13545685  0.77405741  0.41295975     0.14700
C929        C  0.06338629  0.56440005  0.31952269    -0.11400
C930        C  0.08446527  0.58519247  0.32468533    -0.12900
C931        C  0.16805795  0.56345862  0.42411535    -0.11400
C932        C  0.16321424  0.58465401  0.40341819    -0.12900
C933        C  0.06354053  0.66829799  0.42328793    -0.11400
C934        C  0.08459317  0.66292815  0.40259424    -0.12900
C935        C  0.37364451  0.65441838  0.25997645    -0.11400
C936        C  0.36002296  0.62757079  0.27760834     0.10700
C937        C  0.34703458  0.60026879  0.26004698    -0.11400
C938        C  0.34706582  0.60021685  0.22514434    -0.11400
C939        C  0.36007588  0.62747249  0.20756125     0.10700
C940        C  0.37364760  0.65438167  0.22516257    -0.11400
H941        H  0.38480721  0.67510792  0.27312403     0.14700
H942        H  0.33657731  0.57926764  0.27336629     0.14700
H943        H  0.33660784  0.57918972  0.21184238     0.14700
H944        H  0.38474540  0.67507851  0.21198390     0.14700
C945        C  0.26167548  0.65761300  0.35900088    -0.11400
C946        C  0.27923223  0.62741371  0.35870367     0.10700
C947        C  0.26132592  0.59734689  0.35869330    -0.11400
C948        C  0.22649762  0.59751445  0.35938280    -0.11400
C949        C  0.20894251  0.62775252  0.36015849     0.10700
C950        C  0.22685490  0.65778118  0.35974147    -0.11400
H951        H  0.27492888  0.68111925  0.35900744     0.14700
H952        H  0.27421997  0.57372465  0.35737105     0.14700
H953        H  0.21330857  0.57401192  0.35846508     0.14700
H954        H  0.21389397  0.68141807  0.36025035     0.14700
C955        C  0.32540974  0.58450719  0.40175917    -0.11400
C956        C  0.32077961  0.56368387  0.42290324    -0.12900
C957        C  0.42380389  0.56387160  0.31727138    -0.11400
C958        C  0.40298288  0.58486169  0.32228888    -0.12900
C959        C  0.42381099  0.66848436  0.42210845    -0.11400
C960        C  0.40303254  0.66315311  0.40103042    -0.12900
C961        C  0.33027778  0.86507848  0.26024079    -0.11400
C962        C  0.35987549  0.85967919  0.27802642     0.10700
C963        C  0.38958563  0.85432244  0.26042836    -0.11400
C964        C  0.38952615  0.85416052  0.22554951    -0.11400
C965        C  0.35970306  0.85908246  0.20787904     0.10700
C966        C  0.33008350  0.86438733  0.22545977    -0.11400
H967        H  0.30743580  0.87057460  0.27316909     0.14700
H968        H  0.41267651  0.84982217  0.27367674     0.14700
H969        H  0.41259254  0.84963160  0.21235945     0.14700
H970        H  0.30691174  0.86858372  0.21222342     0.14700
C971        C  0.26126335  0.86134822  0.38966051    -0.11400
C972        C  0.27892498  0.85728267  0.35967275     0.10700
C973        C  0.26075700  0.85051199  0.33058684    -0.11400
C974        C  0.22611854  0.84996170  0.33083672    -0.11400
C975        C  0.20828184  0.85646294  0.36009342     0.10700
C976        C  0.22635383  0.86095617  0.38986602    -0.11400
H977        H  0.27424602  0.86402950  0.41313388     0.14700
H978        H  0.27302305  0.84566425  0.30727925     0.14700
H979        H  0.21360026  0.84452085  0.30778291     0.14700
H980        H  0.21370378  0.86339599  0.41349448     0.14700
C981        C  0.35870462  0.76102647  0.32837415    -0.11400
C982        C  0.35979253  0.77865340  0.35851782     0.10700
C983        C  0.35951587  0.76083274  0.38865518    -0.11400
C984        C  0.35913901  0.72600141  0.38854695    -0.11400
C985        C  0.35890855  0.70836218  0.35830500     0.10700
C986        C  0.35800815  0.72626954  0.32829232    -0.11400
H987        H  0.35864285  0.77415239  0.30478968     0.14700
H988        H  0.35889053  0.77378888  0.41228975     0.14700
H989        H  0.35834792  0.71290578  0.41210976     0.14700
H990        H  0.35707351  0.71345508  0.30466783     0.14700
C991        C  0.32511865  0.90293076  0.40130624    -0.11400
C992        C  0.32038345  0.92393214  0.42222317    -0.12900
C993        C  0.40320669  0.82425023  0.40174055    -0.11400
C994        C  0.42377871  0.81928160  0.42302884    -0.12900
C995        C  0.40284160  0.90273794  0.32311853    -0.11400
C996        C  0.42371859  0.92371285  0.31786449    -0.12900
C997        C  0.33627478  0.83547472  0.83478414     0.47400
H998        H  0.32078315  0.81913874  0.81874966    -0.01600
C999        C  0.37357680  0.87291789  0.87218927     0.47400
H1000       H  0.38959794  0.88897072  0.88816887    -0.01600
C1001       C  0.35938511  0.85889940  0.81495204    -0.15300
C1002       C  0.31611159  0.85821052  0.85840467    -0.15100
C1003       C  0.35950910  0.81563036  0.85806195    -0.15500
C1004       C  0.37904655  0.87839228  0.83488018    -0.15500
C1005       C  0.33623851  0.87818475  0.87773049    -0.15000
C1006       C  0.37902122  0.83565926  0.87773549    -0.15300
C1007       C  0.37365309  0.61407987  0.87154475     0.47400
H1008       H  0.38989698  0.59821956  0.88747029    -0.01600
C1009       C  0.33585283  0.65123331  0.83423759     0.47400
H1010       H  0.31968044  0.66684623  0.81808244    -0.01600
C1011       C  0.33646196  0.60815111  0.87699408    -0.15300
C1012       C  0.37864039  0.65145861  0.87722350    -0.15100
C1013       C  0.37897834  0.60875167  0.83421933    -0.15500
C1014       C  0.31620328  0.62766036  0.85748119    -0.15500
C1015       C  0.35877002  0.67133782  0.85770025    -0.15000
C1016       C  0.35928050  0.62824338  0.81441505    -0.15300
C1017       C  0.15211074  0.65159287  0.83643761     0.47400
H1018       H  0.16848375  0.66768369  0.82108560    -0.01600
C1019       C  0.11459659  0.61403333  0.87343484     0.47400
H1020       H  0.09849713  0.59801407  0.88932013    -0.01600
C1021       C  0.12937745  0.62797053  0.81606439    -0.15300
C1022       C  0.17193512  0.62832731  0.85974777    -0.15500
C1023       C  0.12857050  0.67131132  0.85950885    -0.15500
C1024       C  0.10937687  0.60858255  0.83604562    -0.15500
C1025       C  0.15185889  0.60857240  0.87909141    -0.15000
C1026       C  0.10907801  0.65127664  0.87898830    -0.15300
C1027       C  0.11388709  0.87247642  0.87341860     0.47400
H1028       H  0.09823123  0.88866638  0.88953037    -0.01600
C1029       C  0.15034439  0.83468651  0.83568759     0.47400
H1030       H  0.16537946  0.81804181  0.81959232    -0.01600
C1031       C  0.15133363  0.87743413  0.87862753    -0.15300
C1032       C  0.10809903  0.83528671  0.87902925    -0.15100
C1033       C  0.10806366  0.87802747  0.83614116    -0.15500
C1034       C  0.17105159  0.85729621  0.85916468    -0.15500
C1035       C  0.12715744  0.81517906  0.85922382    -0.15000
C1036       C  0.12721217  0.85832332  0.81596578    -0.15300
C1037       C  0.11331843  0.87259218  0.61431032     0.47400
H1038       H  0.09735223  0.88856418  0.59821547    -0.01600
C1039       C  0.15054218  0.83520287  0.65191878     0.47400
H1040       H  0.16630450  0.81920014  0.66810172    -0.01600
C1041       C  0.15063165  0.87885831  0.60980905    -0.15300
C1042       C  0.10688559  0.87718128  0.65158633    -0.15100
C1043       C  0.10876814  0.83533570  0.60799010    -0.15500
C1044       C  0.17059697  0.85928627  0.62957350    -0.15500
C1045       C  0.12635533  0.85757752  0.67164307    -0.15000
C1046       C  0.12825973  0.81536747  0.62764095    -0.15300
C1047       C  0.37243115  0.87316348  0.61385397     0.47400
H1048       H  0.38843414  0.88916434  0.59785605    -0.01600
C1049       C  0.33509558  0.83580339  0.65127537     0.47400
H1050       H  0.31918489  0.82002409  0.66748708    -0.01600
C1051       C  0.33508974  0.87919135  0.60897712    -0.15300
C1052       C  0.37721557  0.83588348  0.60778546    -0.15100
C1053       C  0.37864210  0.87795911  0.65115127    -0.15500
C1054       C  0.31509667  0.85959046  0.62864668    -0.15500
C1055       C  0.35759782  0.81585541  0.62736529    -0.15000
C1056       C  0.35907518  0.85838381  0.67103625    -0.15300
C1057       C  0.11386100  0.61388309  0.61356624     0.47400
H1058       H  0.09765596  0.59790287  0.59769985    -0.01600
C1059       C  0.15163802  0.65136813  0.65045983     0.47400
H1060       H  0.16812694  0.66740361  0.66578800    -0.01600
C1061       C  0.15108896  0.60837768  0.60780333    -0.15300
C1062       C  0.10835250  0.65117859  0.60804132    -0.15100
C1063       C  0.10887032  0.60832577  0.65096689    -0.15500
C1064       C  0.17132525  0.62812245  0.62707774    -0.15500
C1065       C  0.12800286  0.67119755  0.62746525    -0.15000
C1066       C  0.12899346  0.62773773  0.67089420    -0.15300
C1067       C  0.37312355  0.61411031  0.61359063     0.47400
H1068       H  0.38920648  0.59823160  0.59759444    -0.01600
C1069       C  0.33568307  0.65127040  0.65105954     0.47400
H1070       H  0.31966186  0.66684206  0.66732525    -0.01600
C1071       C  0.37869011  0.60864916  0.65090314    -0.15300
C1072       C  0.37820168  0.65151395  0.60796139    -0.15100
C1073       C  0.33584985  0.60830069  0.60824917    -0.15500
C1074       C  0.35916859  0.62816916  0.67076771    -0.15500
C1075       C  0.35849737  0.67140814  0.62758785    -0.15000
C1076       C  0.31577560  0.62781943  0.62786733    -0.15300
O1077       O  0.02681841  0.95987340  0.69624517    -0.69900
O1078       O  0.45988752  0.52711963  0.69619988    -0.70100
O1079       O  0.45970581  0.95995291  0.69644019    -0.69900
O1080       O  0.02703726  0.52709662  0.69590478    -0.69900
O1081       O  0.02647877  0.52669205  0.64170867    -0.69900
O1082       O  0.45971070  0.95996355  0.64223492    -0.69900
O1083       O  0.45976296  0.52666160  0.64199570    -0.69900
O1084       O  0.02637325  0.95990757  0.64203953    -0.70100
V1085       V  0.49336190  0.99351038  0.69519718     1.35200
V1086       V  0.49308937  0.99331110  0.64310361     1.35200
C1087       C  0.03777838  0.94848900  0.66903833     0.79400
C1088       C  0.44856904  0.53822183  0.66897105     0.79400
C1089       C  0.44842273  0.94862856  0.66927175     0.79300
C1090       C  0.03801424  0.53828054  0.66857963     0.79300
O1091       O  0.02690840  0.96073241  0.84533201    -0.69900
O1092       O  0.45994274  0.52717511  0.84413913    -0.70100
O1093       O  0.46013589  0.96047902  0.84435539    -0.69900
O1094       O  0.02661367  0.52748951  0.84520948    -0.69900
O1095       O  0.02758234  0.52755578  0.79101392    -0.69900
O1096       O  0.46056433  0.96016486  0.79015608    -0.69900
O1097       O  0.46050958  0.52729587  0.78993380    -0.69900
O1098       O  0.02775421  0.96040528  0.79113771    -0.70100
V1099       V  0.49341366  0.99395553  0.84365268     1.35200
V1100       V  0.49409429  0.99384534  0.79156295     1.35200
C1101       C  0.03866056  0.94929799  0.81853031     0.79400
C1102       C  0.44895464  0.53853721  0.81694239     0.79400
C1103       C  0.44903307  0.94901013  0.81725664     0.79300
C1104       C  0.03829419  0.53893514  0.81838147     0.79300
O1105       O  0.19575150  0.95936622  0.95983726    -0.69900
O1106       O  0.19533486  0.52619012  0.52720478    -0.70100
O1107       O  0.19533027  0.95905248  0.52704983    -0.69900
O1108       O  0.19576016  0.52645165  0.96020150    -0.69900
O1109       O  0.14156271  0.52622159  0.95994866    -0.69900
O1110       O  0.14114274  0.95918007  0.52641221    -0.69900
O1111       O  0.14114113  0.52594063  0.52659091    -0.69900
O1112       O  0.14155650  0.95952415  0.95959785    -0.70100
V1113       V  0.19453597  0.99273107  0.99356803     1.35200
V1114       V  0.14245020  0.99268779  0.99314729     1.35200
C1115       C  0.16860909  0.94827320  0.94830452     0.79400
C1116       C  0.16806217  0.53746776  0.53807371     0.79400
C1117       C  0.16805921  0.94783126  0.53806645     0.79300
C1118       C  0.16862866  0.53778408  0.94894107     0.79300
O1119       O  0.45971362  0.64235122  0.52616800    -0.69900
O1120       O  0.02663481  0.64228045  0.95976052    -0.70100
O1121       O  0.02638572  0.64225388  0.52649081    -0.69900
O1122       O  0.45996393  0.64237770  0.95935876    -0.69900
O1123       O  0.45990254  0.69653914  0.95908261    -0.69900
O1124       O  0.02671198  0.69641591  0.52676468    -0.69900
O1125       O  0.02703915  0.69644231  0.95956914    -0.69900
O1126       O  0.45957967  0.69651034  0.52637149    -0.70100
V1127       V  0.49316493  0.64343161  0.99294312     1.35200
V1128       V  0.49329361  0.69548567  0.99294415     1.35200
C1129       C  0.44839802  0.66930535  0.53762262     0.79400
C1130       C  0.03817537  0.66921223  0.94842003     0.79400
C1131       C  0.03778251  0.66917657  0.53801787     0.79300
C1132       C  0.44876353  0.66934070  0.94776053     0.79300
O1133       O  0.29171689  0.95985283  0.52593197    -0.69900
O1134       O  0.29257599  0.52717504  0.95904378    -0.70100
O1135       O  0.29233335  0.96013760  0.95875939    -0.69900
O1136       O  0.29202610  0.52697081  0.52612650    -0.69900
O1137       O  0.34621607  0.52662302  0.52651173    -0.69900
O1138       O  0.34652288  0.96014091  0.95950687    -0.69900
O1139       O  0.34676445  0.52686744  0.95974851    -0.69900
O1140       O  0.34590620  0.95984764  0.52633897    -0.70100
V1141       V  0.29318122  0.99351873  0.99248074     1.35200
V1142       V  0.34526195  0.99335922  0.99302217     1.35200
C1143       C  0.31875429  0.94853556  0.53744206     0.79400
C1144       C  0.31988594  0.53836819  0.94813837     0.79400
C1145       C  0.31957980  0.94895603  0.94772351     0.79300
C1146       C  0.31917214  0.53813736  0.53758004     0.79300
O1147       O  0.45991171  0.84545172  0.96023748    -0.69900
O1148       O  0.02651315  0.84521256  0.52716015    -0.70100
O1149       O  0.02655181  0.84520290  0.96046903    -0.69900
O1150       O  0.45978601  0.84550913  0.52700957    -0.69900
O1151       O  0.45933163  0.79134233  0.52725310    -0.69900
O1152       O  0.02647441  0.79103159  0.96031072    -0.69900
O1153       O  0.02642792  0.79103787  0.52736448    -0.69900
O1154       O  0.45946822  0.79127883  0.96011013    -0.70100
V1155       V  0.49317231  0.84425136  0.99373562     1.35200
V1156       V  0.49291381  0.79218448  0.99377703     1.35200
C1157       C  0.44855522  0.81849894  0.94873278     0.79400
C1158       C  0.03781534  0.81817673  0.53849332     0.79400
C1159       C  0.03778884  0.81817809  0.94911204     0.79300
C1160       C  0.44826265  0.81858610  0.53840181     0.79300
C1161       C  0.32454377  0.58455055  0.58366316    -0.11400
C1162       C  0.31977560  0.56355874  0.56270886    -0.12900
C1163       C  0.42332865  0.66844131  0.56309841    -0.11400
C1164       C  0.40254245  0.66316837  0.58413030    -0.12900
C1165       C  0.42345003  0.56361663  0.66813018    -0.11400
C1166       C  0.40268505  0.58463792  0.66281328    -0.12900
C1167       C  0.22623724  0.65772437  0.62728664    -0.11400
C1168       C  0.20837407  0.62766006  0.62643591     0.10700
C1169       C  0.22605650  0.59747952  0.62644204    -0.11400
C1170       C  0.26089561  0.59740457  0.62671245    -0.11400
C1171       C  0.27874883  0.62750560  0.62704332     0.10700
C1172       C  0.26107959  0.65764711  0.62761206    -0.11400
H1173       H  0.21322879  0.68133950  0.62737774     0.14700
H1174       H  0.21298592  0.57390833  0.62710402     0.14700
H1175       H  0.27383598  0.57378507  0.62749316     0.14700
H1176       H  0.27424766  0.68119826  0.62792728     0.14700
C1177       C  0.06292997  0.66823613  0.56346087    -0.11400
C1178       C  0.08387661  0.66285699  0.58434361    -0.12900
C1179       C  0.16225545  0.58436653  0.58351277    -0.11400
C1180       C  0.16717692  0.56311029  0.56291690    -0.12900
C1181       C  0.08413902  0.58470128  0.66236573    -0.11400
C1182       C  0.06315908  0.56376996  0.66751668    -0.12900
C1183       C  0.35688264  0.76112161  0.65700529    -0.11400
C1184       C  0.35802375  0.77884062  0.62690493     0.10700
C1185       C  0.35853453  0.76103826  0.59676196    -0.11400
C1186       C  0.35882371  0.72619865  0.59682497    -0.11400
C1187       C  0.35848469  0.70847517  0.62702901     0.10700
C1188       C  0.35689874  0.72634201  0.65704207    -0.11400
H1189       H  0.35633137  0.77418048  0.68060621     0.14700
H1190       H  0.35803539  0.77400503  0.57312026     0.14700
H1191       H  0.35852953  0.71316854  0.57322634     0.14700
H1192       H  0.35594114  0.71348371  0.68065545     0.14700
C1193       C  0.42294775  0.81944910  0.56355064    -0.11400
C1194       C  0.40180731  0.82446716  0.58422277    -0.12900
C1195       C  0.31909276  0.92335188  0.56285585    -0.11400
C1196       C  0.32368424  0.90270364  0.58420494    -0.12900
C1197       C  0.40248835  0.90220644  0.66300927    -0.11400
C1198       C  0.42323368  0.92324674  0.66849117    -0.12900
C1199       C  0.12327142  0.76076870  0.65672858    -0.11400
C1200       C  0.12757257  0.77845493  0.62696635     0.10700
C1201       C  0.13144249  0.76078583  0.59699828    -0.11400
C1202       C  0.13136450  0.72589180  0.59697975    -0.11400
C1203       C  0.12711481  0.70819750  0.62687902     0.10700
C1204       C  0.12260626  0.72599775  0.65657539    -0.11400
H1205       H  0.11978127  0.77391373  0.68003230     0.14700
H1206       H  0.13516581  0.77397429  0.57375989     0.14700
H1207       H  0.13511342  0.71272179  0.57374790     0.14700
H1208       H  0.11773764  0.71310549  0.67957540     0.14700
C1209       C  0.22546486  0.82971634  0.62982854    -0.11400
C1210       C  0.20765220  0.85977067  0.62917998     0.10700
C1211       C  0.22539571  0.88995386  0.62882347    -0.11400
C1212       C  0.26024674  0.89003726  0.62840018    -0.11400
C1213       C  0.27804300  0.85993902  0.62838432     0.10700
C1214       C  0.26030316  0.82980000  0.62943496    -0.11400
H1215       H  0.21242440  0.80609702  0.63012291     0.14700
H1216       H  0.21235512  0.91351819  0.62952506     0.14700
H1217       H  0.27325657  0.91365134  0.62883186     0.14700
H1218       H  0.27340019  0.80623409  0.62950788     0.14700
C1219       C  0.06327968  0.81877894  0.56351677    -0.11400
C1220       C  0.08448572  0.82372494  0.58417774    -0.12900
C1221       C  0.16213271  0.90228387  0.58499525    -0.11400
C1222       C  0.16715862  0.92276631  0.56358713    -0.12900
C1223       C  0.06268822  0.92289868  0.66826900    -0.11400
C1224       C  0.08320754  0.90161561  0.66315545    -0.12900
C1225       C  0.09618687  0.85531015  0.76140762    -0.11400
C1226       C  0.12629211  0.85912862  0.77892563     0.10700
C1227       C  0.15592377  0.86298889  0.76089694    -0.11400
C1228       C  0.15581090  0.86217983  0.72611630    -0.11400
C1229       C  0.12585368  0.85837289  0.70859379     0.10700
C1230       C  0.09594698  0.85507706  0.72647109    -0.11400
H1231       H  0.07299098  0.85200019  0.77474278     0.14700
H1232       H  0.17910913  0.86749204  0.77360774     0.14700
H1233       H  0.17909286  0.86519752  0.71283058     0.14700
H1234       H  0.07255176  0.85168500  0.71342546     0.14700
C1235       C  0.08389836  0.82383935  0.90297071    -0.11400
C1236       C  0.06298903  0.81883536  0.92387221    -0.12900
C1237       C  0.08455411  0.90278566  0.82472878    -0.11400
C1238       C  0.06389514  0.92399325  0.81966477    -0.12900
C1239       C  0.16797328  0.92323592  0.92283131    -0.11400
C1240       C  0.16295976  0.90219995  0.90199711    -0.12900
C1241       C  0.13671112  0.65598745  0.76076209    -0.11400
C1242       C  0.13003463  0.62687676  0.77883266     0.10700
C1243       C  0.12551366  0.59702228  0.76100547    -0.11400
C1244       C  0.12539874  0.59696050  0.72609001    -0.11400
C1245       C  0.12984700  0.62674552  0.70813737     0.10700
C1246       C  0.13665243  0.65591018  0.72610125    -0.11400
H1247       H  0.14196306  0.67917344  0.77311910     0.14700
H1248       H  0.12291421  0.57350608  0.77385191     0.14700
H1249       H  0.12270718  0.57340284  0.71334738     0.14700
H1250       H  0.14193738  0.67902527  0.71367821     0.14700
C1251       C  0.13195919  0.72593748  0.88982176    -0.11400
C1252       C  0.12735370  0.70822410  0.85999738     0.10700
C1253       C  0.12183224  0.72588919  0.83036999    -0.11400
C1254       C  0.12175519  0.76065085  0.83023836    -0.11400
C1255       C  0.12637479  0.77834796  0.85994674     0.10700
C1256       C  0.13133974  0.76079089  0.88982184    -0.11400
H1257       H  0.13648634  0.71280931  0.91296549     0.14700
H1258       H  0.11680602  0.71287319  0.80743998     0.14700
H1259       H  0.11761789  0.77377533  0.80700403     0.14700
H1260       H  0.13545697  0.77405177  0.91296016     0.14700
C1261       C  0.06338559  0.56439631  0.81951690    -0.11400
C1262       C  0.08446463  0.58518851  0.82468016    -0.12900
C1263       C  0.16805394  0.56345446  0.92411325    -0.11400
C1264       C  0.16321190  0.58464948  0.90341535    -0.12900
C1265       C  0.06353992  0.66829152  0.92328795    -0.11400
C1266       C  0.08459141  0.66292163  0.90259308    -0.12900
C1267       C  0.37364227  0.65441759  0.75997673    -0.11400
C1268       C  0.36002252  0.62756962  0.77760939     0.10700
C1269       C  0.34703646  0.60026602  0.76004876    -0.11400
C1270       C  0.34706781  0.60021305  0.72514610    -0.11400
C1271       C  0.36007579  0.62746918  0.70756223     0.10700
C1272       C  0.37364564  0.65437976  0.72516287    -0.11400
H1273       H  0.38480359  0.67510823  0.77312368     0.14700
H1274       H  0.33658078  0.57926444  0.77336865     0.14700
H1275       H  0.33661143  0.57918474  0.71184475     0.14700
H1276       H  0.38474246  0.67507677  0.71198372     0.14700
C1277       C  0.26167326  0.65761244  0.85900025    -0.11400
C1278       C  0.27923112  0.62741380  0.85870362     0.10700
C1279       C  0.26132572  0.59734637  0.85869336    -0.11400
C1280       C  0.22649734  0.59751269  0.85938240    -0.11400
C1281       C  0.20894107  0.62775011  0.86015743     0.10700
C1282       C  0.22685258  0.65777938  0.85974040    -0.11400
H1283       H  0.27492586  0.68111914  0.85900672     0.14700
H1284       H  0.27422059  0.57372455  0.85737158     0.14700
H1285       H  0.21330917  0.57400967  0.85846476     0.14700
H1286       H  0.21389087  0.68141585  0.86024886     0.14700
C1287       C  0.32540829  0.58450984  0.90176117    -0.11400
C1288       C  0.32077722  0.56368712  0.92290552    -0.12900
C1289       C  0.42380370  0.56387206  0.81727370    -0.11400
C1290       C  0.40298255  0.58486203  0.82229121    -0.12900
C1291       C  0.42381115  0.66848507  0.92210854    -0.11400
C1292       C  0.40303238  0.66315432  0.90103067    -0.12900
C1293       C  0.33027767  0.86507519  0.76024041    -0.11400
C1294       C  0.35987544  0.85967814  0.77802666     0.10700
C1295       C  0.38958583  0.85432102  0.76042915    -0.11400
C1296       C  0.38952663  0.85415713  0.72555029    -0.11400
C1297       C  0.35970360  0.85907745  0.70787919     0.10700
C1298       C  0.33008371  0.86438214  0.72545941    -0.11400
H1299       H  0.30743535  0.87057114  0.77316818     0.14700
H1300       H  0.41267670  0.84982204  0.77367799     0.14700
H1301       H  0.41259331  0.84962824  0.71236071     0.14700
H1302       H  0.30691194  0.86857725  0.71222267     0.14700
C1303       C  0.26126288  0.86134856  0.88966152    -0.11400
C1304       C  0.27892419  0.85728351  0.85967350     0.10700
C1305       C  0.26075603  0.85051185  0.83058794    -0.11400
C1306       C  0.22611763  0.84995969  0.83083844    -0.11400
C1307       C  0.20828113  0.85646032  0.86009536     0.10700
C1308       C  0.22635339  0.86095476  0.88986762    -0.11400
H1309       H  0.27424582  0.86403066  0.91313465     0.14700
H1310       H  0.27302190  0.84566460  0.80728017     0.14700
H1311       H  0.21359925  0.84451784  0.80778491     0.14700
H1312       H  0.21370360  0.86339423  0.91349626     0.14700
C1313       C  0.35870446  0.76102771  0.82837467    -0.11400
C1314       C  0.35979171  0.77865453  0.85851846     0.10700
C1315       C  0.35951482  0.76083367  0.88865570    -0.11400
C1316       C  0.35913821  0.72600233  0.88854725    -0.11400
C1317       C  0.35890818  0.70836321  0.85830522     0.10700
C1318       C  0.35800818  0.72627074  0.82829263    -0.11400
H1319       H  0.35864296  0.77415377  0.80479028     0.14700
H1320       H  0.35888908  0.77378966  0.91229033     0.14700
H1321       H  0.35834692  0.71290657  0.91210999     0.14700
H1322       H  0.35707386  0.71345641  0.80466808     0.14700
C1323       C  0.32511789  0.90293284  0.90130613    -0.11400
C1324       C  0.32038343  0.92393458  0.92222296    -0.12900
C1325       C  0.40320497  0.82425153  0.90174175    -0.11400
C1326       C  0.42377665  0.81928252  0.92303024    -0.12900
C1327       C  0.40284158  0.90273858  0.82311863    -0.11400
C1328       C  0.42371899  0.92371331  0.81786489    -0.12900
C1329       C  0.83628214  0.33547737  0.33478415     0.47400
H1330       H  0.82078976  0.31914284  0.31874898    -0.01600
C1331       C  0.87358621  0.37291716  0.37219052     0.47400
H1332       H  0.88960808  0.38896863  0.38817076    -0.01600
C1333       C  0.85939306  0.35890225  0.31495301    -0.15300
C1334       C  0.81612004  0.35821257  0.35840598    -0.15100
C1335       C  0.85951574  0.31563086  0.35806082    -0.15500
C1336       C  0.87905584  0.37839318  0.33488168    -0.15500
C1337       C  0.83624808  0.37818509  0.37773239    -0.15000
C1338       C  0.87902914  0.33565803  0.37773501    -0.15300
C1339       C  0.87364293  0.11407961  0.37154233     0.47400
H1340       H  0.88988663  0.09821875  0.38746752    -0.01600
C1341       C  0.83584336  0.15123442  0.33423581     0.47400
H1342       H  0.81967122  0.16684789  0.31808094    -0.01600
C1343       C  0.83645178  0.10815069  0.37699115    -0.15300
C1344       C  0.87863040  0.15145820  0.37722222    -0.15100
C1345       C  0.87896844  0.10875246  0.33421672    -0.15500
C1346       C  0.81619354  0.12766072  0.35747850    -0.15500
C1347       C  0.85876044  0.17133816  0.35769932    -0.15000
C1348       C  0.85927104  0.12824498  0.31441274    -0.15300
C1349       C  0.65210179  0.15159294  0.33643479     0.47400
H1350       H  0.66847500  0.16768298  0.32108220    -0.01600
C1351       C  0.61458801  0.11403505  0.37343401     0.47400
H1352       H  0.59848871  0.09801646  0.38932015    -0.01600
C1353       C  0.62936730  0.12797072  0.31606269    -0.15300
C1354       C  0.67192620  0.12832746  0.35974465    -0.15500
C1355       C  0.62856314  0.17131245  0.35950660    -0.15500
C1356       C  0.60936691  0.10858377  0.33604511    -0.15500
C1357       C  0.65185043  0.10857326  0.37908934    -0.15000
C1358       C  0.60907045  0.15127863  0.37898677    -0.15300
C1359       C  0.61389507  0.37247791  0.37342293     0.47400
H1360       H  0.59823950  0.38866823  0.38953461    -0.01600
C1361       C  0.65035179  0.33468737  0.33569202     0.47400
H1362       H  0.66538662  0.31804240  0.31959680    -0.01600
C1363       C  0.65134167  0.37743466  0.37863210    -0.15300
C1364       C  0.60810587  0.33528834  0.37903340    -0.15100
C1365       C  0.60807224  0.37802945  0.33614544    -0.15500
C1366       C  0.67105946  0.35729650  0.35916933    -0.15500
C1367       C  0.62716391  0.31518038  0.35922785    -0.15000
C1368       C  0.62722030  0.35832478  0.31597007    -0.15300
C1369       C  0.61331780  0.37258751  0.11431468     0.47400
H1370       H  0.59735055  0.38855910  0.09822047    -0.01600
C1371       C  0.65054414  0.33519917  0.15192159     0.47400
H1372       H  0.66630738  0.31919672  0.16810387    -0.01600
C1373       C  0.65063065  0.37885403  0.10981116    -0.15300
C1374       C  0.60688721  0.37717742  0.15159096    -0.15100
C1375       C  0.60876762  0.33533092  0.10799518    -0.15500
C1376       C  0.67059756  0.35928270  0.12957488    -0.15500
C1377       C  0.62635809  0.35757398  0.17164697    -0.15000
C1378       C  0.62826061  0.31536318  0.12764506    -0.15300
C1379       C  0.87243284  0.37316776  0.11385532     0.47400
H1380       H  0.88843540  0.38916821  0.09785655    -0.01600
C1381       C  0.83509799  0.33580854  0.15127832     0.47400
H1382       H  0.81918771  0.32002977  0.16749092    -0.01600
C1383       C  0.83509115  0.37919506  0.10897905    -0.15300
C1384       C  0.87721742  0.33588759  0.10778787    -0.15100
C1385       C  0.87864463  0.37796471  0.15115222    -0.15500
C1386       C  0.81509833  0.35959447  0.12864918    -0.15500
C1387       C  0.85759977  0.31585992  0.12736826    -0.15000
C1388       C  0.85907793  0.35838994  0.17103796    -0.15300
C1389       C  0.61386014  0.11387890  0.11356281     0.47400
H1390       H  0.59765552  0.09789910  0.09769557    -0.01600
C1391       C  0.65163603  0.15136298  0.15045843     0.47400
H1392       H  0.66812489  0.16739805  0.16578704    -0.01600
C1393       C  0.65108824  0.10837390  0.10780044    -0.15300
C1394       C  0.60835149  0.15117463  0.10803897    -0.15100
C1395       C  0.60886861  0.10832052  0.15096325    -0.15500
C1396       C  0.67132374  0.12811835  0.12707584    -0.15500
C1397       C  0.62800131  0.17119308  0.12746411    -0.15000
C1398       C  0.62899100  0.12773207  0.17089177    -0.15300
C1399       C  0.87312154  0.11411482  0.11358788     0.47400
H1400       H  0.88920510  0.09823650  0.09759194    -0.01600
C1401       C  0.83567956  0.15127391  0.15105628     0.47400
H1402       H  0.81965750  0.16684504  0.16732166    -0.01600
C1403       C  0.87868711  0.10865334  0.15090052    -0.15300
C1404       C  0.87819936  0.15151862  0.10795932    -0.15100
C1405       C  0.83584812  0.10830456  0.10824539    -0.15500
C1406       C  0.85916475  0.12817281  0.17076491    -0.15500
C1407       C  0.85849435  0.17141231  0.12758563    -0.15000
C1408       C  0.81577325  0.12782276  0.12786332    -0.15300
O1409       O  0.52682577  0.45987510  0.19625139    -0.69900
O1410       O  0.95988217  0.02712076  0.19619457    -0.70100
O1411       O  0.95971163  0.45995491  0.19644361    -0.69900
O1412       O  0.52703077  0.02709565  0.19589839    -0.69900
O1413       O  0.52647220  0.02669139  0.14170226    -0.69900
O1414       O  0.95971866  0.45996765  0.14223838    -0.69900
O1415       O  0.95975665  0.02666316  0.14199037    -0.69900
O1416       O  0.52638216  0.45991045  0.14204575    -0.70100
V1417       V  0.99336921  0.49351137  0.19520330     1.35200
V1418       V  0.99309849  0.49331417  0.14310973     1.35200
C1419       C  0.53778597  0.44849069  0.16904461     0.79400
C1420       C  0.94856380  0.03822372  0.16896606     0.79400
C1421       C  0.94842903  0.44863200  0.16927427     0.79300
C1422       C  0.53800839  0.03827896  0.16857329     0.79300
O1423       O  0.52691838  0.46073604  0.34533509    -0.69900
O1424       O  0.95993068  0.02717422  0.34413675    -0.70100
O1425       O  0.96014621  0.46047972  0.34435814    -0.69900
O1426       O  0.52660207  0.02749106  0.34520959    -0.69900
O1427       O  0.52757421  0.02755682  0.29101408    -0.69900
O1428       O  0.96057503  0.46016570  0.29015885    -0.69900
O1429       O  0.96050027  0.02729700  0.28993146    -0.69900
O1430       O  0.52776405  0.46040791  0.29114079    -0.70100
V1431       V  0.99342244  0.49395789  0.34365576     1.35200
V1432       V  0.99410321  0.49384807  0.29156605     1.35200
C1433       C  0.53867083  0.44930148  0.31853359     0.79400
C1434       C  0.94894373  0.03853713  0.31693988     0.79400
C1435       C  0.94904392  0.44901048  0.31725931     0.79300
C1436       C  0.53828400  0.03893661  0.31838217     0.79300
O1437       O  0.69575616  0.45937042  0.45983922    -0.69900
O1438       O  0.69533416  0.02618744  0.02719924    -0.70100
O1439       O  0.69532801  0.45904855  0.02705306    -0.69900
O1440       O  0.69575775  0.02645464  0.46019907    -0.69900
O1441       O  0.64156031  0.02622045  0.45994528    -0.69900
O1442       O  0.64114051  0.45917965  0.02641477    -0.69900
O1443       O  0.64114042  0.02594035  0.02658635    -0.69900
O1444       O  0.64156113  0.45952547  0.45960013    -0.70100
V1445       V  0.69453909  0.49273474  0.49357021     1.35200
V1446       V  0.64245332  0.49268865  0.49315013     1.35200
C1447       C  0.66861432  0.44827589  0.44830676     0.79400
C1448       C  0.66806212  0.03746645  0.03806855     0.79400
C1449       C  0.66805615  0.44782878  0.03806903     0.79300
C1450       C  0.66862552  0.03778482  0.44893797     0.79300
O1451       O  0.95970992  0.14235367  0.02616697    -0.69900
O1452       O  0.52662698  0.14228253  0.45975640    -0.70100
O1453       O  0.52638217  0.14225201  0.02648995    -0.69900
O1454       O  0.95995594  0.14237794  0.45935608    -0.69900
O1455       O  0.95989199  0.19653938  0.45908188    -0.69900
O1456       O  0.52671235  0.19641401  0.02676201    -0.69900
O1457       O  0.52702806  0.19644441  0.45956443    -0.69900
O1458       O  0.95957877  0.19651281  0.02636890    -0.70100
V1459       V  0.99315715  0.14343214  0.49294017     1.35200
V1460       V  0.99328320  0.19548620  0.49294343     1.35200
C1461       C  0.94839590  0.16930870  0.03762099     0.79400
C1462       C  0.53816614  0.16921487  0.44841589     0.79400
C1463       C  0.53778110  0.16917426  0.03801597     0.79300
C1464       C  0.94875418  0.16934080  0.44775889     0.79300
O1465       O  0.79172194  0.45985785  0.02593421    -0.69900
O1466       O  0.79256710  0.02716983  0.45903841    -0.70100
O1467       O  0.79234345  0.46013414  0.45876370    -0.69900
O1468       O  0.79202002  0.02697418  0.02612509    -0.69900
O1469       O  0.84620995  0.02662292  0.02650946    -0.69900
O1470       O  0.84653303  0.46014085  0.45951009    -0.69900
O1471       O  0.84675553  0.02686610  0.45974455    -0.69900
O1472       O  0.84591128  0.45984917  0.02634205    -0.70100
V1473       V  0.79318980  0.49351489  0.49248515     1.35200
V1474       V  0.84527058  0.49335886  0.49302557     1.35200
C1475       C  0.81875843  0.44853873  0.03744444     0.79400
C1476       C  0.81987654  0.03836507  0.44813368     0.79400
C1477       C  0.81959036  0.44895442  0.44772725     0.79300
C1478       C  0.81916699  0.03813907  0.03757819     0.79300
O1479       O  0.95991647  0.34544934  0.46023929    -0.69900
O1480       O  0.52651625  0.34520817  0.02716290    -0.70100
O1481       O  0.52655723  0.34520211  0.46047338    -0.69900
O1482       O  0.95978919  0.34550866  0.02701254    -0.69900
O1483       O  0.95933258  0.29134189  0.02725695    -0.69900
O1484       O  0.52648203  0.29103081  0.46031537    -0.69900
O1485       O  0.52642757  0.29103351  0.02736809    -0.69900
O1486       O  0.95947462  0.29127645  0.46011127    -0.70100
V1487       V  0.99317672  0.34424960  0.49373789     1.35200
V1488       V  0.99292051  0.29218272  0.49377793     1.35200
C1489       C  0.94856093  0.31849635  0.44873406     0.79400
C1490       C  0.53781649  0.31817183  0.03849678     0.79400
C1491       C  0.53779534  0.31817776  0.44911643     0.79300
C1492       C  0.94826470  0.31858633  0.03840518     0.79300
C1493       C  0.82454243  0.08455345  0.08365996    -0.11400
C1494       C  0.81977272  0.06356097  0.06270657    -0.12900
C1495       C  0.92332688  0.16844641  0.06309715    -0.11400
C1496       C  0.90254064  0.16317358  0.08412902    -0.12900
C1497       C  0.92344596  0.06361962  0.16812618    -0.11400
C1498       C  0.90268152  0.08464169  0.16281059    -0.12900
C1499       C  0.72623380  0.15772314  0.12728206    -0.11400
C1500       C  0.70837232  0.12765780  0.12643326     0.10700
C1501       C  0.72605611  0.09747814  0.12644036    -0.11400
C1502       C  0.76089515  0.09740503  0.12671036    -0.11400
C1503       C  0.77874671  0.12750706  0.12703948     0.10700
C1504       C  0.76107608  0.15764772  0.12760684    -0.11400
H1505       H  0.71322403  0.18133755  0.12737227     0.14700
H1506       H  0.71298659  0.07390638  0.12710336     0.14700
H1507       H  0.77383680  0.07378626  0.12749210     0.14700
H1508       H  0.77424302  0.18119953  0.12792072     0.14700
C1509       C  0.56292901  0.16823296  0.06345863    -0.11400
C1510       C  0.58387582  0.16285357  0.08434121    -0.12900
C1511       C  0.66225586  0.08436417  0.08350881    -0.11400
C1512       C  0.66717799  0.06310885  0.06291206    -0.12900
C1513       C  0.58413607  0.08469680  0.16236062    -0.11400
C1514       C  0.56315482  0.06376666  0.16751064    -0.12900
C1515       C  0.85687946  0.26112484  0.15700641    -0.11400
C1516       C  0.85802392  0.27884499  0.12690682     0.10700
C1517       C  0.85853613  0.26104362  0.09676324    -0.11400
C1518       C  0.85882409  0.22620404  0.09682494    -0.11400
C1519       C  0.85848215  0.20847940  0.12702823     0.10700
C1520       C  0.85689429  0.22634518  0.15704186    -0.11400
H1521       H  0.85632687  0.27418277  0.18060780     0.14700
H1522       H  0.85803898  0.27401109  0.07312191     0.14700
H1523       H  0.85853123  0.21317493  0.07322575     0.14700
H1524       H  0.85593460  0.21348599  0.18065470     0.14700
C1525       C  0.92294966  0.31945099  0.06355380    -0.11400
C1526       C  0.90180920  0.32447059  0.08422552    -0.12900
C1527       C  0.81909483  0.42335487  0.06285768    -0.11400
C1528       C  0.82368538  0.40270659  0.08420670    -0.12900
C1529       C  0.90249220  0.40221172  0.16300926    -0.11400
C1530       C  0.92323860  0.42325114  0.16849164    -0.12900
C1531       C  0.62327207  0.26076336  0.15673100    -0.11400
C1532       C  0.62757431  0.27845059  0.12696957     0.10700
C1533       C  0.63144424  0.26078246  0.09700088    -0.11400
C1534       C  0.63136491  0.22588843  0.09698088    -0.11400
C1535       C  0.62711371  0.20819309  0.12687926     0.10700
C1536       C  0.62260524  0.22599240  0.15657627    -0.11400
H1537       H  0.61978177  0.27390763  0.18003512     0.14700
H1538       H  0.63516822  0.27397172  0.07376307     0.14700
H1539       H  0.63511387  0.21271921  0.07374858     0.14700
H1540       H  0.61773503  0.21309950  0.17957554     0.14700
C1541       C  0.72546751  0.32971574  0.12983171    -0.11400
C1542       C  0.70765304  0.35976899  0.12918059     0.10700
C1543       C  0.72539514  0.38995306  0.12882160    -0.11400
C1544       C  0.76024627  0.39003835  0.12839874    -0.11400
C1545       C  0.77804434  0.35994114  0.12838592     0.10700
C1546       C  0.76030591  0.32980128  0.12943861    -0.11400
H1547       H  0.71242840  0.30609570  0.13012794     0.14700
H1548       H  0.71235342  0.41351681  0.12952138     0.14700
H1549       H  0.77325470  0.41365321  0.12882871     0.14700
H1550       H  0.77340413  0.30623604  0.12951363     0.14700
C1551       C  0.56328002  0.31877310  0.06352119    -0.11400
C1552       C  0.58448534  0.32371947  0.08418287    -0.12900
C1553       C  0.66212953  0.40228005  0.08499681    -0.11400
C1554       C  0.66715421  0.42276308  0.06358895    -0.12900
C1555       C  0.56269409  0.42289859  0.16827524    -0.11400
C1556       C  0.58321139  0.40161366  0.16316098    -0.12900
C1557       C  0.59619302  0.35531293  0.26141295    -0.11400
C1558       C  0.62629924  0.35912896  0.27892980     0.10700
C1559       C  0.65593067  0.36298512  0.26089980    -0.11400
C1560       C  0.65581649  0.36217456  0.22611915    -0.11400
C1561       C  0.62585824  0.35837019  0.20859783     0.10700
C1562       C  0.59595188  0.35507835  0.22647648    -0.11400
H1563       H  0.57299723  0.35200588  0.27474900     0.14700
H1564       H  0.67911694  0.36748637  0.27360944     0.14700
H1565       H  0.67909829  0.36518931  0.21283252     0.14700
H1566       H  0.57255578  0.35168821  0.21343195     0.14700
C1567       C  0.58390457  0.32384127  0.40297468    -0.11400
C1568       C  0.56299541  0.31883624  0.42387626    -0.12900
C1569       C  0.58456386  0.40278874  0.32473299    -0.11400
C1570       C  0.56390562  0.42399695  0.31966854    -0.12900
C1571       C  0.66798000  0.42323808  0.42283421    -0.11400
C1572       C  0.66296779  0.40220111  0.40200081    -0.12900
C1573       C  0.63670417  0.15598453  0.26075932    -0.11400
C1574       C  0.63002442  0.12687525  0.27883088     0.10700
C1575       C  0.62550167  0.09702043  0.26100456    -0.11400
C1576       C  0.62538901  0.09695714  0.22608900    -0.11400
C1577       C  0.62984169  0.12674090  0.20813525     0.10700
C1578       C  0.63664833  0.15590564  0.22609856    -0.11400
H1579       H  0.64195698  0.17917075  0.27311543     0.14700
H1580       H  0.62289961  0.07350492  0.27385171     0.14700
H1581       H  0.62269623  0.07339913  0.21334734     0.14700
H1582       H  0.64193679  0.17901971  0.21367530     0.14700
C1583       C  0.63195242  0.22593694  0.38982247    -0.11400
C1584       C  0.62734978  0.20822535  0.35999656     0.10700
C1585       C  0.62183586  0.22589240  0.33036896    -0.11400
C1586       C  0.62176243  0.26065401  0.33023894    -0.11400
C1587       C  0.62637865  0.27834931  0.35994893     0.10700
C1588       C  0.63133685  0.26079035  0.38982402    -0.11400
H1589       H  0.63647460  0.21280737  0.41296637     0.14700
H1590       H  0.61681274  0.21287808  0.30743737     0.14700
H1591       H  0.61763040  0.27377991  0.30700448     0.14700
H1592       H  0.63545179  0.27404963  0.41296364     0.14700
C1593       C  0.56337491  0.06439792  0.31951856    -0.11400
C1594       C  0.58445403  0.08519003  0.32468114    -0.12900
C1595       C  0.66804884  0.06345512  0.42411008    -0.11400
C1596       C  0.66320449  0.08465016  0.40341271    -0.12900
C1597       C  0.56353149  0.16829514  0.42328470    -0.11400
C1598       C  0.58458375  0.16292471  0.40259082    -0.12900
C1599       C  0.87363609  0.15441936  0.25997512    -0.11400
C1600       C  0.86001351  0.12757223  0.27760693     0.10700
C1601       C  0.84702565  0.10027007  0.26004532    -0.11400
C1602       C  0.84705875  0.10021738  0.22514261    -0.11400
C1603       C  0.86007032  0.12747234  0.20755955     0.10700
C1604       C  0.87364119  0.15438182  0.22516117    -0.11400
H1605       H  0.88479821  0.17510913  0.27312284     0.14700
H1606       H  0.83656751  0.07926926  0.27336450     0.14700
H1607       H  0.83660104  0.07919018  0.21184056     0.14700
H1608       H  0.88473990  0.17507829  0.21198270     0.14700
C1609       C  0.76166377  0.15761270  0.35899730    -0.11400
C1610       C  0.77922155  0.12741405  0.35870006     0.10700
C1611       C  0.76131630  0.09734657  0.35868847    -0.11400
C1612       C  0.72648800  0.09751283  0.35937738    -0.11400
C1613       C  0.70893189  0.12775023  0.36015354     0.10700
C1614       C  0.72684319  0.15777958  0.35973729    -0.11400
H1615       H  0.77491635  0.18111942  0.35900460     0.14700
H1616       H  0.77421122  0.07372482  0.35736599     0.14700
H1617       H  0.71329975  0.07400987  0.35845902     0.14700
H1618       H  0.71388140  0.18141600  0.36024648     0.14700
C1619       C  0.82539776  0.08450815  0.40175723    -0.11400
C1620       C  0.82076686  0.06368455  0.42290098    -0.12900
C1621       C  0.92379274  0.06387195  0.31727085    -0.11400
C1622       C  0.90297201  0.08486237  0.32228825    -0.12900
C1623       C  0.92380156  0.16848467  0.42210710    -0.11400
C1624       C  0.90302272  0.16315329  0.40102944    -0.12900
C1625       C  0.83028421  0.36508393  0.26024298    -0.11400
C1626       C  0.85988215  0.35968327  0.27802787     0.10700
C1627       C  0.88959141  0.35432390  0.26042924    -0.11400
C1628       C  0.88953089  0.35416073  0.22555046    -0.11400
C1629       C  0.85970765  0.35908414  0.20788068     0.10700
C1630       C  0.83008892  0.36439177  0.22546197    -0.11400
H1631       H  0.80744278  0.37058126  0.27317197     0.14700
H1632       H  0.91268227  0.34982222  0.27367716     0.14700
H1633       H  0.91259658  0.34962972  0.21235988     0.14700
H1634       H  0.80691711  0.36858924  0.21222607     0.14700
C1635       C  0.76127170  0.36135067  0.38966415    -0.11400
C1636       C  0.77893249  0.35728597  0.35967570     0.10700
C1637       C  0.76076367  0.35051422  0.33059053    -0.11400
C1638       C  0.72612527  0.34996065  0.33084207    -0.11400
C1639       C  0.70828919  0.35646101  0.36009932     0.10700
C1640       C  0.72636213  0.36095630  0.38987106    -0.11400
H1641       H  0.77425506  0.36403291  0.41313702     0.14700
H1642       H  0.77302902  0.34566797  0.30728218     0.14700
H1643       H  0.71360657  0.34451807  0.30778898     0.14700
H1644       H  0.71371281  0.36339591  0.41349994     0.14700
C1645       C  0.85870235  0.26102814  0.32837360    -0.11400
C1646       C  0.85979411  0.27865496  0.35851730     0.10700
C1647       C  0.85951589  0.26083422  0.38865456    -0.11400
C1648       C  0.85913419  0.22600293  0.38854620    -0.11400
C1649       C  0.85890058  0.20836365  0.35830424     0.10700
C1650       C  0.85800114  0.22627122  0.32829165    -0.11400
H1651       H  0.85864135  0.27415407  0.30478915     0.14700
H1652       H  0.85889296  0.27379030  0.41228922     0.14700
H1653       H  0.85834224  0.21290745  0.41210905     0.14700
H1654       H  0.85706413  0.21345691  0.30466715     0.14700
C1655       C  0.82512871  0.40293231  0.40130918    -0.11400
C1656       C  0.82039473  0.42393343  0.42222656    -0.12900
C1657       C  0.90321188  0.32424856  0.40174162    -0.11400
C1658       C  0.92378288  0.31927946  0.42303084    -0.12900
C1659       C  0.90285203  0.40273891  0.32312082    -0.11400
C1660       C  0.92373005  0.42371324  0.31786737    -0.12900
C1661       C  0.83627775  0.33547726  0.83478737     0.47400
H1662       H  0.82078615  0.31914211  0.81875206    -0.01600
C1663       C  0.87358001  0.37291842  0.87219421     0.47400
H1664       H  0.88960117  0.38897045  0.88817461    -0.01600
C1665       C  0.85938887  0.35890222  0.81495645    -0.15300
C1666       C  0.81611453  0.35821243  0.85840840    -0.15100
C1667       C  0.85951139  0.31563162  0.85806470    -0.15500
C1668       C  0.87905051  0.37839405  0.83488544    -0.15500
C1669       C  0.83624165  0.37818570  0.87773492    -0.15000
C1670       C  0.87902375  0.33565945  0.87773918    -0.15300
C1671       C  0.87364977  0.11408074  0.87154116     0.47400
H1672       H  0.88989379  0.09821995  0.88746609    -0.01600
C1673       C  0.83584929  0.15123528  0.83423529     0.47400
H1674       H  0.81967676  0.16684868  0.81808075    -0.01600
C1675       C  0.83645869  0.10815209  0.87699101    -0.15300
C1676       C  0.87863750  0.15145929  0.87722068    -0.15100
C1677       C  0.87897427  0.10875327  0.83421547    -0.15500
C1678       C  0.81619997  0.12766193  0.85747866    -0.15500
C1679       C  0.85876703  0.17133908  0.85769815    -0.15000
C1680       C  0.85927617  0.12824539  0.81441179    -0.15300
C1681       C  0.65210651  0.15159067  0.83643378     0.47400
H1682       H  0.66847883  0.16768135  0.82108093    -0.01600
C1683       C  0.61459478  0.11403136  0.87343372     0.47400
H1684       H  0.59849640  0.09801219  0.88932020    -0.01600
C1685       C  0.62937223  0.12796770  0.81606212    -0.15300
C1686       C  0.67193228  0.12832581  0.85974325    -0.15500
C1687       C  0.62856743  0.17130930  0.85950605    -0.15500
C1688       C  0.60937304  0.10857992  0.83604495    -0.15500
C1689       C  0.65185747  0.10857098  0.87908825    -0.15000
C1690       C  0.60907598  0.15127470  0.87898665    -0.15300
C1691       C  0.61388846  0.37247429  0.87341959     0.47400
H1692       H  0.59823175  0.38866420  0.88953059    -0.01600
C1693       C  0.65034772  0.33468471  0.83569021     0.47400
H1694       H  0.66538352  0.31804004  0.81959559    -0.01600
C1695       C  0.65133470  0.37743226  0.87863030    -0.15300
C1696       C  0.60810029  0.33528457  0.87903011    -0.15100
C1697       C  0.60806697  0.37802547  0.83614181    -0.15500
C1698       C  0.67105384  0.35729463  0.85916820    -0.15500
C1699       C  0.62715956  0.31517713  0.85922526    -0.15000
C1700       C  0.62721650  0.35832145  0.81596729    -0.15300
C1701       C  0.61332590  0.37259161  0.61431209     0.47400
H1702       H  0.59735949  0.38856391  0.59821776    -0.01600
C1703       C  0.65055018  0.33520151  0.65191936     0.47400
H1704       H  0.66631255  0.31919845  0.66810190    -0.01600
C1705       C  0.65063905  0.37885709  0.60980969    -0.15300
C1706       C  0.60689431  0.37718089  0.65158827    -0.15100
C1707       C  0.60877476  0.33533526  0.60799194    -0.15500
C1708       C  0.67060482  0.35928492  0.62957362    -0.15500
C1709       C  0.62636403  0.35757648  0.67164438    -0.15000
C1710       C  0.62826667  0.31536654  0.62764193    -0.15300
C1711       C  0.87244080  0.37316376  0.61385891     0.47400
H1712       H  0.88844460  0.38916372  0.59786089    -0.01600
C1713       C  0.83510308  0.33580569  0.65128006     0.47400
H1714       H  0.81919137  0.32002747  0.66749178    -0.01600
C1715       C  0.83509958  0.37919283  0.60898125    -0.15300
C1716       C  0.87722387  0.33588340  0.60779111    -0.15100
C1717       C  0.87865141  0.37796004  0.65115612    -0.15500
C1718       C  0.81510531  0.35959272  0.62865044    -0.15500
C1719       C  0.85760468  0.31585627  0.62737055    -0.15000
C1720       C  0.85908318  0.35838582  0.67104098    -0.15300
C1721       C  0.61385128  0.11388261  0.61356268     0.47400
H1722       H  0.59764611  0.09790321  0.59769560    -0.01600
C1723       C  0.65162868  0.15136553  0.65045788     0.47400
H1724       H  0.66811817  0.16740004  0.66578641    -0.01600
C1725       C  0.65107918  0.10837657  0.60780001    -0.15300
C1726       C  0.60834364  0.15117853  0.60803885    -0.15100
C1727       C  0.60886018  0.10832416  0.65096317    -0.15500
C1728       C  0.67131546  0.12812034  0.62707526    -0.15500
C1729       C  0.62799445  0.17119636  0.62746370    -0.15000
C1730       C  0.62898341  0.12773511  0.67089139    -0.15300
C1731       C  0.87311240  0.11410984  0.61358628     0.47400
H1732       H  0.88919504  0.09823115  0.59758978    -0.01600
C1733       C  0.83567272  0.15126992  0.65105599     0.47400
H1734       H  0.81965158  0.16684135  0.66732195    -0.01600
C1735       C  0.87867914  0.10864810  0.65089868    -0.15300
C1736       C  0.87819110  0.15151352  0.60795771    -0.15100
C1737       C  0.83583870  0.10830060  0.60824501    -0.15500
C1738       C  0.85915812  0.12816815  0.67076380    -0.15500
C1739       C  0.85848726  0.17140790  0.62758457    -0.15000
C1740       C  0.81576498  0.12781927  0.62786363    -0.15300
O1741       O  0.52683056  0.45987545  0.69625038    -0.69900
O1742       O  0.95987627  0.02711809  0.69619339    -0.70100
O1743       O  0.95971754  0.45995251  0.69644579    -0.69900
O1744       O  0.52702608  0.02709584  0.69589858    -0.69900
O1745       O  0.52646829  0.02669036  0.64170246    -0.69900
O1746       O  0.95972109  0.45996510  0.64224055    -0.69900
O1747       O  0.95975244  0.02666008  0.64198920    -0.69900
O1748       O  0.52638404  0.45990950  0.64204476    -0.70100
V1749       V  0.99337340  0.49351057  0.69520312     1.35200
V1750       V  0.99309990  0.49331269  0.64310957     1.35200
C1751       C  0.53778986  0.44849093  0.66904325     0.79400
C1752       C  0.94855819  0.03822031  0.66896445     0.79400
C1753       C  0.94843371  0.44862902  0.66927721     0.79300
C1754       C  0.53800354  0.03827909  0.66857340     0.79300
O1755       O  0.52691605  0.46073291  0.84533225    -0.69900
O1756       O  0.95993547  0.02717504  0.84413634    -0.70100
O1757       O  0.96014347  0.46047979  0.84435889    -0.69900
O1758       O  0.52660652  0.02748819  0.84520998    -0.69900
O1759       O  0.52757873  0.02755389  0.79101448    -0.69900
O1760       O  0.96056878  0.46016547  0.79015957    -0.69900
O1761       O  0.96050597  0.02729740  0.78993105    -0.69900
O1762       O  0.52775896  0.46040477  0.79113789    -0.70100
V1763       V  0.99342098  0.49395659  0.84365413     1.35200
V1764       V  0.99409839  0.49384655  0.79156436     1.35200
C1765       C  0.53866672  0.44929797  0.81853013     0.79400
C1766       C  0.94894936  0.03853808  0.81693919     0.79400
C1767       C  0.94903908  0.44901074  0.81726085     0.79300
C1768       C  0.53828893  0.03893332  0.81838259     0.79300
O1769       O  0.69574773  0.45936568  0.95984025    -0.69900
O1770       O  0.69532697  0.02619058  0.52720078    -0.70100
O1771       O  0.69533693  0.45905267  0.52705199    -0.69900
O1772       O  0.69576405  0.02645137  0.96019743    -0.69900
O1773       O  0.64156658  0.02622082  0.95994451    -0.69900
O1774       O  0.64114941  0.45918095  0.52641416    -0.69900
O1775       O  0.64113323  0.02594004  0.52658714    -0.69900
O1776       O  0.64155274  0.45952393  0.95960044    -0.70100
V1777       V  0.69453234  0.49273032  0.99357104     1.35200
V1778       V  0.64244658  0.49268723  0.99315053     1.35200
C1779       C  0.66860541  0.44827283  0.94830727     0.79400
C1780       C  0.66805407  0.03746788  0.53806961     0.79400
C1781       C  0.66806570  0.44783145  0.53806813     0.79300
C1782       C  0.66863240  0.03778336  0.94893681     0.79300
O1783       O  0.95970489  0.14235093  0.52616640    -0.69900
O1784       O  0.52663182  0.14228016  0.95975795    -0.70100
O1785       O  0.52637721  0.14225400  0.52648837    -0.69900
O1786       O  0.95996107  0.14237822  0.95935650    -0.69900
O1787       O  0.95989925  0.19653965  0.95908078    -0.69900
O1788       O  0.52670346  0.19641601  0.52676104    -0.69900
O1789       O  0.52703621  0.19644202  0.95956547    -0.69900
O1790       O  0.95957085  0.19651006  0.52636980    -0.70100
V1791       V  0.99316225  0.14343208  0.99294071     1.35200
V1792       V  0.99329069  0.19548614  0.99294210     1.35200
C1793       C  0.94838922  0.16930505  0.53762091     0.79400
C1794       C  0.53817250  0.16921170  0.94841705     0.79400
C1795       C  0.53777409  0.16917694  0.53801483     0.79300
C1796       C  0.94876045  0.16934119  0.94775844     0.79300
O1797       O  0.79172980  0.45985372  0.52593503    -0.69900
O1798       O  0.79257296  0.02717459  0.95904016    -0.70100
O1799       O  0.79233668  0.46013844  0.95876301    -0.69900
O1800       O  0.79201279  0.02696967  0.52612343    -0.69900
O1801       O  0.84620274  0.02662153  0.52650939    -0.69900
O1802       O  0.84652625  0.46014211  0.95950998    -0.69900
O1803       O  0.84676139  0.02686661  0.95974459    -0.69900
O1804       O  0.84591913  0.45984873  0.52634243    -0.70100
V1805       V  0.79318463  0.49351907  0.99248460     1.35200
V1806       V  0.84526540  0.49335974  0.99302577     1.35200
C1807       C  0.81876714  0.44853658  0.53744527     0.79400
C1808       C  0.81988292  0.03836762  0.94813455     0.79400
C1809       C  0.81958311  0.44895714  0.94772694     0.79300
C1810       C  0.81915878  0.03813603  0.53757740     0.79300
O1811       O  0.95991571  0.34544999  0.96023957    -0.69900
O1812       O  0.52651776  0.34521105  0.52716339    -0.70100
O1813       O  0.52655564  0.34520000  0.96047268    -0.69900
O1814       O  0.95979059  0.34550680  0.52701252    -0.69900
O1815       O  0.95933631  0.29134000  0.52725595    -0.69900
O1816       O  0.52647741  0.29102871  0.96031438    -0.69900
O1817       O  0.52643279  0.29103637  0.52736876    -0.69900
O1818       O  0.95947149  0.29127711  0.96011253    -0.70100
V1819       V  0.99317569  0.34424940  0.99373834     1.35200
V1820       V  0.99291724  0.29218254  0.99377934     1.35200
C1821       C  0.94855879  0.31849729  0.94873505     0.79400
C1822       C  0.53782016  0.31817550  0.53849699     0.79400
C1823       C  0.53779204  0.31817508  0.94911537     0.79300
C1824       C  0.94826773  0.31858376  0.53840512     0.79300
C1825       C  0.82453180  0.08454998  0.58365967    -0.11400
C1826       C  0.81976245  0.06355769  0.56270604    -0.12900
C1827       C  0.92331965  0.16844091  0.56309639    -0.11400
C1828       C  0.90253292  0.16316771  0.58412765    -0.12900
C1829       C  0.92343921  0.06361511  0.66812362    -0.11400
C1830       C  0.90267414  0.08463657  0.66280791    -0.12900
C1831       C  0.72622665  0.15772290  0.62728274    -0.11400
C1832       C  0.70836402  0.12765827  0.62643315     0.10700
C1833       C  0.72604666  0.09747793  0.62644033    -0.11400
C1834       C  0.76088570  0.09740350  0.62671080    -0.11400
C1835       C  0.77873840  0.12750488  0.62704041     0.10700
C1836       C  0.76106890  0.15764617  0.62760807    -0.11400
H1837       H  0.71321781  0.18133782  0.62737303     0.14700
H1838       H  0.71297626  0.07390664  0.62710295     0.14700
H1839       H  0.77382647  0.07378423  0.62749233     0.14700
H1840       H  0.77423671  0.18119748  0.62792235     0.14700
C1841       C  0.56292178  0.16823705  0.56345788    -0.11400
C1842       C  0.58386839  0.16285806  0.58434082    -0.12900
C1843       C  0.66224597  0.08436618  0.58350886    -0.11400
C1844       C  0.66716825  0.06311047  0.56291266    -0.12900
C1845       C  0.58412874  0.08469943  0.66236079    -0.11400
C1846       C  0.56314862  0.06376811  0.66751066    -0.12900
C1847       C  0.85687758  0.26112034  0.65700706    -0.11400
C1848       C  0.85802596  0.27884121  0.62690804     0.10700
C1849       C  0.85853819  0.26104042  0.59676410    -0.11400
C1850       C  0.85882259  0.22620074  0.59682500    -0.11400
C1851       C  0.85847710  0.20847527  0.62702784     0.10700
C1852       C  0.85688869  0.22634068  0.65704168    -0.11400
H1853       H  0.85632465  0.27417769  0.68060876     0.14700
H1854       H  0.85804364  0.27400844  0.57312303     0.14700
H1855       H  0.85852984  0.21317233  0.57322544     0.14700
H1856       H  0.85592573  0.21348129  0.68065420     0.14700
C1857       C  0.92295399  0.31944690  0.56355507    -0.11400
C1858       C  0.90181464  0.32446589  0.58422804    -0.12900
C1859       C  0.81910525  0.42335302  0.56285904    -0.11400
C1860       C  0.82369554  0.40270490  0.58420840    -0.12900
C1861       C  0.90249850  0.40220707  0.66301406    -0.11400
C1862       C  0.92324434  0.42324709  0.66849618    -0.12900
C1863       C  0.62327543  0.26076761  0.65672907    -0.11400
C1864       C  0.62757762  0.27845392  0.62696708     0.10700
C1865       C  0.63144396  0.26078484  0.59699845    -0.11400
C1866       C  0.63136090  0.22589080  0.59697902    -0.11400
C1867       C  0.62710960  0.20819642  0.62687796     0.10700
C1868       C  0.62260508  0.22599673  0.65657496    -0.11400
H1869       H  0.61978783  0.27391256  0.68003320     0.14700
H1870       H  0.63516792  0.27397328  0.57376016     0.14700
H1871       H  0.63510728  0.21272082  0.57374674     0.14700
H1872       H  0.61773546  0.21310473  0.67957486     0.14700
C1873       C  0.72547383  0.32971643  0.62983014    -0.11400
C1874       C  0.70766027  0.35977020  0.62917997     0.10700
C1875       C  0.72540317  0.38995382  0.62882198    -0.11400
C1876       C  0.76025429  0.39003818  0.62839932    -0.11400
C1877       C  0.77805145  0.35994048  0.62838582     0.10700
C1878       C  0.76031221  0.32980105  0.62943727    -0.11400
H1879       H  0.71243405  0.30609675  0.63012549     0.14700
H1880       H  0.71236208  0.41351789  0.62952235     0.14700
H1881       H  0.77326343  0.41365265  0.62883011     0.14700
H1882       H  0.77340978  0.30623546  0.62951171     0.14700
C1883       C  0.56328475  0.31877838  0.56352013    -0.11400
C1884       C  0.58449124  0.32372489  0.58418051    -0.12900
C1885       C  0.66213943  0.40228279  0.58499575    -0.11400
C1886       C  0.66716487  0.42276570  0.56358799    -0.12900
C1887       C  0.56269930  0.42290012  0.66827309    -0.11400
C1888       C  0.58321757  0.40161623  0.66315832    -0.12900
C1889       C  0.59619336  0.35530775  0.76140806    -0.11400
C1890       C  0.62629795  0.35912665  0.77892704     0.10700
C1891       C  0.65593017  0.36298729  0.76089923    -0.11400
C1892       C  0.65581844  0.36217809  0.72611852    -0.11400
C1893       C  0.62586179  0.35837089  0.70859513     0.10700
C1894       C  0.59595460  0.35507469  0.72647156    -0.11400
H1895       H  0.57299707  0.35199758  0.77474248     0.14700
H1896       H  0.67911500  0.36749111  0.77361071     0.14700
H1897       H  0.67910072  0.36519617  0.71283347     0.14700
H1898       H  0.57255979  0.35168255  0.71342523     0.14700
C1899       C  0.58389976  0.32383693  0.90297191    -0.11400
C1900       C  0.56299137  0.31883232  0.92387439    -0.12900
C1901       C  0.58455880  0.40278437  0.82472829    -0.11400
C1902       C  0.56390080  0.42399276  0.81966387    -0.12900
C1903       C  0.66797025  0.42323535  0.92283418    -0.11400
C1904       C  0.66295901  0.40219877  0.90200004    -0.12900
C1905       C  0.63670433  0.15598376  0.76075931    -0.11400
C1906       C  0.63002693  0.12687357  0.77883024     0.10700
C1907       C  0.62550286  0.09701945  0.76100304    -0.11400
C1908       C  0.62538642  0.09695774  0.72608749    -0.11400
C1909       C  0.62983658  0.12674242  0.70813469     0.10700
C1910       C  0.63664441  0.15590650  0.72609858    -0.11400
H1911       H  0.64195828  0.17916948  0.77311587     0.14700
H1912       H  0.62290253  0.07350333  0.77384941     0.14700
H1913       H  0.62269276  0.07340027  0.71334496     0.14700
H1914       H  0.64193070  0.17902131  0.71367573     0.14700
C1915       C  0.63195539  0.22593449  0.88982080    -0.11400
C1916       C  0.62735171  0.20822215  0.85999549     0.10700
C1917       C  0.62183383  0.22588842  0.83036814    -0.11400
C1918       C  0.62175825  0.26065006  0.83023759    -0.11400
C1919       C  0.62637591  0.27834606  0.85994694     0.10700
C1920       C  0.63133743  0.26078788  0.88982191    -0.11400
H1921       H  0.63648016  0.21280553  0.91296454     0.14700
H1922       H  0.61680927  0.21287344  0.80743724     0.14700
H1923       H  0.61762355  0.27377541  0.80700330     0.14700
H1924       H  0.63545321  0.27404782  0.91296102     0.14700
C1925       C  0.56338065  0.06439396  0.81951904    -0.11400
C1926       C  0.58446006  0.08518588  0.82468152    -0.12900
C1927       C  0.66805697  0.06345354  0.92410893    -0.11400
C1928       C  0.66321263  0.08464844  0.90341151    -0.12900
C1929       C  0.56353747  0.16829038  0.92328550    -0.11400
C1930       C  0.58458936  0.16291987  0.90259126    -0.12900
C1931       C  0.87363447  0.15441882  0.75997199    -0.11400
C1932       C  0.86001618  0.12757097  0.77760593     0.10700
C1933       C  0.84702967  0.10026682  0.76004634    -0.11400
C1934       C  0.84705953  0.10021303  0.72514359    -0.11400
C1935       C  0.86006659  0.12746884  0.70755847     0.10700
C1936       C  0.87363667  0.15438001  0.72515808    -0.11400
H1937       H  0.88479566  0.17511015  0.77311799     0.14700
H1938       H  0.83657484  0.07926539  0.77336714     0.14700
H1939       H  0.83660282  0.07918430  0.71184317     0.14700
H1940       H  0.88473290  0.17507677  0.71197807     0.14700
C1941       C  0.76166952  0.15761305  0.85899719    -0.11400
C1942       C  0.77922794  0.12741472  0.85870029     0.10700
C1943       C  0.76132325  0.09734693  0.85868817    -0.11400
C1944       C  0.72649491  0.09751252  0.85937611    -0.11400
C1945       C  0.70893809  0.12774955  0.86015194     0.10700
C1946       C  0.72684884  0.15777925  0.85973625    -0.11400
H1947       H  0.77492167  0.18112000  0.85900480     0.14700
H1948       H  0.77421866  0.07372543  0.85736593     0.14700
H1949       H  0.71330721  0.07400928  0.85845741     0.14700
H1950       H  0.71388655  0.18141540  0.86024526     0.14700
C1951       C  0.82540517  0.08451001  0.90175764    -0.11400
C1952       C  0.82077425  0.06368682  0.92290172    -0.12900
C1953       C  0.92379881  0.06387324  0.81726952    -0.11400
C1954       C  0.90297789  0.08486348  0.82228669    -0.12900
C1955       C  0.92380818  0.16848540  0.92210624    -0.11400
C1956       C  0.90302963  0.16315442  0.90102814    -0.12900
C1957       C  0.83028275  0.36507724  0.76024414    -0.11400
C1958       C  0.85988025  0.35968149  0.77803121     0.10700
C1959       C  0.88959137  0.35432543  0.76043463    -0.11400
C1960       C  0.88953321  0.35416128  0.72555584    -0.11400
C1961       C  0.85971051  0.35908036  0.70788387     0.10700
C1962       C  0.83008987  0.36438412  0.72546316    -0.11400
H1963       H  0.80743971  0.37057183  0.77317129     0.14700
H1964       H  0.91268200  0.34982717  0.77368413     0.14700
H1965       H  0.91260043  0.34963292  0.71236702     0.14700
H1966       H  0.80691831  0.36857817  0.71222572     0.14700
C1967       C  0.76126532  0.36135084  0.88966515    -0.11400
C1968       C  0.77892692  0.35728547  0.85967724     0.10700
C1969       C  0.76075885  0.35051304  0.83059181    -0.11400
C1970       C  0.72612046  0.34995946  0.83084243    -0.11400
C1971       C  0.70828357  0.35646021  0.86009914     0.10700
C1972       C  0.72635573  0.36095632  0.88987122    -0.11400
H1973       H  0.77424807  0.36403367  0.91313828     0.14700
H1974       H  0.77302477  0.34566614  0.80728396     0.14700
H1975       H  0.71360242  0.34451635  0.80778907     0.14700
H1976       H  0.71370582  0.36339628  0.91349974     0.14700
C1977       C  0.85870361  0.26102994  0.82837553    -0.11400
C1978       C  0.85979270  0.27865575  0.85851991     0.10700
C1979       C  0.85951560  0.26083392  0.88865653    -0.11400
C1980       C  0.85913710  0.22600262  0.88854689    -0.11400
C1981       C  0.85890563  0.20836447  0.85830428     0.10700
C1982       C  0.85800562  0.22627298  0.82829231    -0.11400
H1983       H  0.85864215  0.27415673  0.80479155     0.14700
H1984       H  0.85889108  0.27378913  0.91229162     0.14700
H1985       H  0.85834571  0.21290617  0.91210923     0.14700
H1986       H  0.85707040  0.21345940  0.80466735     0.14700
C1987       C  0.82512110  0.40293374  0.90131029    -0.11400
C1988       C  0.82038662  0.42393567  0.92222672    -0.12900
C1989       C  0.90320765  0.32425056  0.90174483    -0.11400
C1990       C  0.92377980  0.31928108  0.92303282    -0.12900
C1991       C  0.90284667  0.40273995  0.82312487    -0.11400
C1992       C  0.92372468  0.42371409  0.81787068    -0.12900
C1993       C  0.83627539  0.83547287  0.33478443     0.47400
H1994       H  0.82078357  0.81913722  0.31874981    -0.01600
C1995       C  0.87357778  0.87291548  0.37218979     0.47400
H1996       H  0.88959905  0.88896816  0.38816941    -0.01600
C1997       C  0.85938569  0.85889770  0.31495251    -0.15300
C1998       C  0.81611245  0.85820854  0.35840521    -0.15100
C1999       C  0.85950973  0.81562821  0.35806202    -0.15500
C2000       C  0.87904723  0.87839020  0.33488077    -0.15500
C2001       C  0.83623956  0.87818241  0.37773118    -0.15000
C2002       C  0.87902216  0.83565682  0.37773557    -0.15300
C2003       C  0.87365270  0.61407767  0.37154289     0.47400
H2004       H  0.88989667  0.59821713  0.38746812    -0.01600
C2005       C  0.83585240  0.65123173  0.33423642     0.47400
H2006       H  0.81967993  0.66684486  0.31808154    -0.01600
C2007       C  0.83646159  0.60814860  0.37699207    -0.15300
C2008       C  0.87863974  0.65145637  0.37722245    -0.15100
C2009       C  0.87897800  0.60875031  0.33421732    -0.15500
C2010       C  0.81620299  0.62765838  0.35747960    -0.15500
C2011       C  0.85876934  0.67133586  0.35769953    -0.15000
C2012       C  0.85928013  0.62824235  0.31441345    -0.15300
C2013       C  0.65211143  0.65159597  0.33643915     0.47400
H2014       H  0.66848457  0.66768603  0.32108647    -0.01600
C2015       C  0.61459729  0.61403808  0.37343811     0.47400
H2016       H  0.59849785  0.59801952  0.38932412    -0.01600
C2017       C  0.62937722  0.62797367  0.31606692    -0.15300
C2018       C  0.67193565  0.62833041  0.35974932    -0.15500
C2019       C  0.62857221  0.67131547  0.35951047    -0.15500
C2020       C  0.60937666  0.60858655  0.33604910    -0.15500
C2021       C  0.65185959  0.60857640  0.37909394    -0.15000
C2022       C  0.60907962  0.65128167  0.37899071    -0.15300
C2023       C  0.61388790  0.87248041  0.37341694     0.47400
H2024       H  0.59823216  0.88867041  0.38952879    -0.01600
C2025       C  0.65034510  0.83469044  0.33568594     0.47400
H2026       H  0.66538011  0.81804566  0.31959069    -0.01600
C2027       C  0.65133451  0.87743779  0.37862587    -0.15300
C2028       C  0.60809978  0.83529073  0.37902777    -0.15100
C2029       C  0.60806441  0.87803154  0.33613946    -0.15500
C2030       C  0.67105241  0.85729986  0.35916300    -0.15500
C2031       C  0.62715825  0.81518310  0.35922233    -0.15000
C2032       C  0.62721299  0.85832733  0.31596412    -0.15300
C2033       C  0.61331797  0.87258922  0.11430818     0.47400
H2034       H  0.59735150  0.88856066  0.09821304    -0.01600
C2035       C  0.65054240  0.83520129  0.15191740     0.47400
H2036       H  0.66630503  0.81919914  0.16810061    -0.01600
C2037       C  0.65063105  0.87885580  0.10980660    -0.15300
C2038       C  0.60688538  0.87717927  0.15158411    -0.15100
C2039       C  0.60876808  0.83533250  0.10798892    -0.15500
C2040       C  0.67059670  0.85928451  0.12957142    -0.15500
C2041       C  0.62635546  0.85757627  0.17164129    -0.15000
C2042       C  0.62826000  0.81536499  0.12764020    -0.15300
C2043       C  0.87243066  0.87316675  0.11385483     0.47400
H2044       H  0.88843357  0.88916763  0.09785684    -0.01600
C2045       C  0.83509523  0.83580653  0.15127623     0.47400
H2046       H  0.81918455  0.82002724  0.16748796    -0.01600
C2047       C  0.83508922  0.87919444  0.10897801    -0.15300
C2048       C  0.87721514  0.83588672  0.10778638    -0.15100
C2049       C  0.87864165  0.87796251  0.15115208    -0.15500
C2050       C  0.81509625  0.85959337  0.12864744    -0.15500
C2051       C  0.85759745  0.81585857  0.12736621    -0.15000
C2052       C  0.85907478  0.85838709  0.17103700    -0.15300
C2053       C  0.61386077  0.61388029  0.11356898     0.47400
H2054       H  0.59765528  0.59789995  0.09770317    -0.01600
C2055       C  0.65163858  0.65136576  0.15046130     0.47400
H2056       H  0.66812783  0.66740144  0.16578891    -0.01600
C2057       C  0.65108858  0.60837475  0.10780512    -0.15300
C2058       C  0.60835224  0.65117579  0.10804372    -0.15100
C2059       C  0.60887094  0.60832349  0.15096987    -0.15500
C2060       C  0.67132525  0.62811992  0.12707879    -0.15500
C2061       C  0.62800297  0.67119495  0.12746708    -0.15000
C2062       C  0.62899443  0.62773570  0.17089650    -0.15300
C2063       C  0.87312348  0.61411381  0.11358889     0.47400
H2064       H  0.88920658  0.59823560  0.09759238    -0.01600
C2065       C  0.83568245  0.65127271  0.15105849     0.47400
H2066       H  0.81966095  0.66684381  0.16732444    -0.01600
C2067       C  0.87869026  0.60865219  0.15090122    -0.15300
C2068       C  0.87820108  0.65151760  0.10796035    -0.15100
C2069       C  0.83584986  0.60830363  0.10824759    -0.15500
C2070       C  0.85916841  0.62817147  0.17076620    -0.15500
C2071       C  0.85849644  0.67141119  0.12758710    -0.15000
C2072       C  0.81577539  0.62782170  0.12786604    -0.15300
O2073       O  0.52682115  0.95987423  0.19624251    -0.69900
O2074       O  0.95988599  0.52712137  0.19619740    -0.70100
O2075       O  0.95970737  0.95995439  0.19644153    -0.69900
O2076       O  0.52703489  0.52709691  0.19590805    -0.69900
O2077       O  0.52647788  0.52669313  0.14171192    -0.69900
O2078       O  0.95971121  0.95996653  0.14223626    -0.69900
O2079       O  0.95976370  0.52666429  0.14199321    -0.69900
O2080       O  0.52637578  0.95990876  0.14203687    -0.70100
V2081       V  0.99336496  0.99351047  0.19519882     1.35200
V2082       V  0.99309123  0.99331275  0.14310524     1.35200
C2083       C  0.53778054  0.94848954  0.16903556     0.79400
C2084       C  0.94856905  0.53822442  0.16896832     0.79400
C2085       C  0.94842333  0.94863118  0.16927298     0.79300
C2086       C  0.53801306  0.53828076  0.16858333     0.79300
O2087       O  0.52690719  0.96073523  0.34533008    -0.69900
O2088       O  0.95994289  0.52717574  0.34413765    -0.70100
O2089       O  0.96013413  0.96047818  0.34435619    -0.69900
O2090       O  0.52661309  0.52749197  0.34521379    -0.69900
O2091       O  0.52758493  0.52755746  0.29101830    -0.69900
O2092       O  0.96056179  0.96016551  0.29015684    -0.69900
O2093       O  0.96051261  0.52729724  0.28993235    -0.69900
O2094       O  0.52775243  0.96040739  0.29113579    -0.70100
V2095       V  0.99341021  0.99395623  0.34365393     1.35200
V2096       V  0.99409032  0.99384723  0.29156419     1.35200
C2097       C  0.53865951  0.94930082  0.31852843     0.79400
C2098       C  0.94895577  0.53853773  0.31694049     0.79400
C2099       C  0.94903143  0.94900964  0.31725728     0.79300
C2100       C  0.53829475  0.53893764  0.31838627     0.79300
O2101       O  0.69574887  0.95936929  0.45983754    -0.69900
O2102       O  0.69533036  0.52618620  0.02720449    -0.70100
O2103       O  0.69533195  0.95904969  0.02704874    -0.69900
O2104       O  0.69576572  0.52645592  0.46020222    -0.69900
O2105       O  0.64156828  0.52622241  0.45994885    -0.69900
O2106       O  0.64114444  0.95918107  0.02641140    -0.69900
O2107       O  0.64113663  0.52593921  0.02659112    -0.69900
O2108       O  0.64155384  0.95952374  0.45959822    -0.70100
V2109       V  0.69453124  0.99273423  0.49356789     1.35200
V2110       V  0.64244546  0.99268760  0.49314746     1.35200
C2111       C  0.66860718  0.94827462  0.44830485     0.79400
C2112       C  0.66805830  0.53746517  0.03807372     0.79400
C2113       C  0.66806018  0.94783027  0.03806539     0.79300
C2114       C  0.66863355  0.53778679  0.44894168     0.79300
O2115       O  0.95971270  0.64235278  0.02616892    -0.69900
O2116       O  0.52663623  0.64228401  0.45976012    -0.70100
O2117       O  0.52638434  0.64225196  0.02649331    -0.69900
O2118       O  0.95996502  0.64237727  0.45935671    -0.69900
O2119       O  0.95989986  0.69653871  0.45908235    -0.69900
O2120       O  0.52671433  0.69641398  0.02676524    -0.69900
O2121       O  0.52703732  0.69644589  0.45956944    -0.69900
O2122       O  0.95958171  0.69651192  0.02637140    -0.70100
V2123       V  0.99316606  0.64343239  0.49294092     1.35200
V2124       V  0.99329116  0.69548646  0.49294371     1.35200
C2125       C  0.94839854  0.66930774  0.03762300     0.79400
C2126       C  0.53817541  0.66921663  0.44842025     0.79400
C2127       C  0.53778286  0.66917429  0.03801953     0.79300
C2128       C  0.94876267  0.66933986  0.44775946     0.79300
O2129       O  0.79171930  0.95985746  0.02593277    -0.69900
O2130       O  0.79257887  0.52717059  0.45904231    -0.70100
O2131       O  0.79233173  0.96013310  0.45875997    -0.69900
O2132       O  0.79202232  0.52697436  0.02612675    -0.69900
O2133       O  0.84621229  0.52662334  0.02651209    -0.69900
O2134       O  0.84652128  0.96014074  0.45950662    -0.69900
O2135       O  0.84676733  0.52686610  0.45974660    -0.69900
O2136       O  0.84590861  0.95984864  0.02633978    -0.70100
V2137       V  0.79317740  0.99351408  0.49248143     1.35200
V2138       V  0.84525815  0.99335807  0.49302276     1.35200
C2139       C  0.81875594  0.94853838  0.03744282     0.79400
C2140       C  0.81988808  0.53836520  0.44813650     0.79400
C2141       C  0.81957890  0.94895381  0.44772361     0.79300
C2142       C  0.81916904  0.53813923  0.03758033     0.79300
O2143       O  0.95991253  0.84545115  0.46023676    -0.69900
O2144       O  0.52651380  0.84521030  0.02715944    -0.70100
O2145       O  0.52655365  0.84520428  0.46047013    -0.69900
O2146       O  0.95978608  0.84551068  0.02701028    -0.69900
O2147       O  0.95932877  0.79134389  0.02725313    -0.69900
O2148       O  0.52647756  0.79103299  0.46031068    -0.69900
O2149       O  0.52642489  0.79103563  0.02736520    -0.69900
O2150       O  0.95947138  0.79127824  0.46010933    -0.70100
V2151       V  0.99317251  0.84425221  0.49373557     1.35200
V2152       V  0.99291691  0.79218533  0.49377626     1.35200
C2153       C  0.94855723  0.81849789  0.44873198     0.79400
C2154       C  0.53781438  0.81817400  0.03849313     0.79400
C2155       C  0.53779139  0.81818001  0.44911256     0.79300
C2156       C  0.94826142  0.81858812  0.03840228     0.79300
C2157       C  0.82454367  0.58455302  0.08366223    -0.11400
C2158       C  0.81977414  0.56356081  0.06270874    -0.12900
C2159       C  0.92332894  0.66844537  0.06309857    -0.11400
C2160       C  0.90254224  0.66317268  0.08413001    -0.12900
C2161       C  0.92345062  0.56361974  0.16812708    -0.11400
C2162       C  0.90268560  0.58464109  0.16281073    -0.12900
C2163       C  0.72623618  0.65772361  0.12728493    -0.11400
C2164       C  0.70837398  0.62765866  0.12643539     0.10700
C2165       C  0.72605733  0.59747870  0.12644189    -0.11400
C2166       C  0.76089644  0.59740495  0.12671220    -0.11400
C2167       C  0.77874867  0.62750662  0.12704231     0.10700
C2168       C  0.76107851  0.65764755  0.12761011    -0.11400
H2169       H  0.71322694  0.68133831  0.12737556     0.14700
H2170       H  0.71298747  0.57390713  0.12710447     0.14700
H2171       H  0.77383762  0.57378590  0.12749347     0.14700
H2172       H  0.77424585  0.68119911  0.12792460     0.14700
C2173       C  0.56293006  0.66823318  0.06346281    -0.11400
C2174       C  0.58387647  0.66285403  0.08434579    -0.12900
C2175       C  0.66225435  0.58436371  0.08351385    -0.11400
C2176       C  0.66717452  0.56310766  0.06291730    -0.12900
C2177       C  0.58413938  0.58469978  0.16236967    -0.11400
C2178       C  0.56315886  0.56376920  0.16752117    -0.12900
C2179       C  0.85688106  0.76112436  0.15700567    -0.11400
C2180       C  0.85802299  0.77884373  0.12690552     0.10700
C2181       C  0.85853411  0.76104167  0.09676238    -0.11400
C2182       C  0.85882304  0.72620208  0.09682501    -0.11400
C2183       C  0.85848343  0.70847824  0.12702882     0.10700
C2184       C  0.85689695  0.72634472  0.15704207    -0.11400
H2185       H  0.85632944  0.77418295  0.18060673     0.14700
H2186       H  0.85803542  0.77400866  0.07312080     0.14700
H2187       H  0.85852923  0.71317226  0.07322621     0.14700
H2188       H  0.85593898  0.71348611  0.18065529     0.14700
C2189       C  0.92294683  0.81945206  0.06355129    -0.11400
C2190       C  0.90180666  0.82447043  0.08422355    -0.12900
C2191       C  0.81909277  0.92335476  0.06285661    -0.11400
C2192       C  0.82368363  0.90270655  0.08420579    -0.12900
C2193       C  0.90248800  0.90220985  0.16301009    -0.11400
C2194       C  0.92323356  0.92324996  0.16849213    -0.12900
C2195       C  0.62326943  0.76076668  0.15672866    -0.11400
C2196       C  0.62757316  0.77845238  0.12696646     0.10700
C2197       C  0.63144564  0.76078272  0.09699906    -0.11400
C2198       C  0.63136754  0.72588867  0.09698114    -0.11400
C2199       C  0.62711516  0.70819490  0.12688032     0.10700
C2200       C  0.62260419  0.72599564  0.15657605    -0.11400
H2201       H  0.61977736  0.77391219  0.18003180     0.14700
H2202       H  0.63517081  0.77397081  0.07376076     0.14700
H2203       H  0.63511828  0.71271818  0.07374985     0.14700
H2204       H  0.61773375  0.71310367  0.17957592     0.14700
C2205       C  0.72546546  0.82971639  0.12982666    -0.11400
C2206       C  0.70765187  0.85977014  0.12917831     0.10700
C2207       C  0.72539438  0.88995393  0.12882257    -0.11400
C2208       C  0.76024543  0.89003851  0.12840003    -0.11400
C2209       C  0.77804262  0.85994083  0.12838418     0.10700
C2210       C  0.76030375  0.82980121  0.12943381    -0.11400
H2211       H  0.71242572  0.80609666  0.13012043     0.14700
H2212       H  0.71235298  0.91351782  0.12952425     0.14700
H2213       H  0.77325451  0.91365298  0.12883228     0.14700
H2214       H  0.77340155  0.80623573  0.12950660     0.14700
C2215       C  0.56327920  0.81877521  0.06351621    -0.11400
C2216       C  0.58448561  0.82372096  0.08417691    -0.12900
C2217       C  0.66213177  0.90228187  0.08499310    -0.11400
C2218       C  0.66715810  0.92276484  0.06358557    -0.12900
C2219       C  0.56268931  0.92289820  0.16826606    -0.11400
C2220       C  0.58320787  0.90161435  0.16315271    -0.12900
C2221       C  0.59618753  0.85531318  0.26140616    -0.11400
C2222       C  0.62629283  0.85913204  0.27892393     0.10700
C2223       C  0.65592453  0.86299111  0.26089497    -0.11400
C2224       C  0.65581154  0.86218053  0.22611431    -0.11400
C2225       C  0.62585421  0.85837310  0.20859206     0.10700
C2226       C  0.59594755  0.85507849  0.22646966    -0.11400
H2227       H  0.57299165  0.85200394  0.27474152     0.14700
H2228       H  0.67911003  0.86749424  0.27360555     0.14700
H2229       H  0.67909349  0.86519735  0.21282837     0.14700
H2230       H  0.57255224  0.85168607  0.21342429     0.14700
C2231       C  0.58389991  0.82384329  0.40297017    -0.11400
C2232       C  0.56299135  0.81883852  0.42387236    -0.12900
C2233       C  0.58455446  0.90278955  0.32472709    -0.11400
C2234       C  0.56389498  0.92399675  0.31966303    -0.12900
C2235       C  0.66797309  0.92323786  0.42283131    -0.11400
C2236       C  0.66296062  0.90220258  0.40199630    -0.12900
C2237       C  0.63671145  0.65598856  0.26076350    -0.11400
C2238       C  0.63003429  0.62687864  0.27883516     0.10700
C2239       C  0.62551310  0.59702359  0.26100900    -0.11400
C2240       C  0.62539883  0.59696051  0.22609352    -0.11400
C2241       C  0.62984773  0.62674479  0.20813976     0.10700
C2242       C  0.63665306  0.65591009  0.22610263    -0.11400
H2243       H  0.64196382  0.67917486  0.27311964     0.14700
H2244       H  0.62291311  0.57350791  0.27385629     0.14700
H2245       H  0.62270719  0.57340239  0.21335175     0.14700
H2246       H  0.64193815  0.67902473  0.21367871     0.14700
C2247       C  0.63196033  0.72594230  0.38982230    -0.11400
C2248       C  0.62735614  0.70822828  0.35999809     0.10700
C2249       C  0.62183626  0.72589276  0.33037005    -0.11400
C2250       C  0.62175894  0.76065436  0.33023769    -0.11400
C2251       C  0.62637658  0.77835207  0.35994597     0.10700
C2252       C  0.63134057  0.76079568  0.38982163    -0.11400
H2253       H  0.63648648  0.71281466  0.41296652     0.14700
H2254       H  0.61681104  0.71287637  0.30744011     0.14700
H2255       H  0.61762263  0.77377831  0.30700289     0.14700
H2256       H  0.63545666  0.77405704  0.41295987     0.14700
C2257       C  0.56338536  0.56439957  0.31952242    -0.11400
C2258       C  0.58446417  0.58519221  0.32468488    -0.12900
C2259       C  0.66805709  0.56345774  0.42411446    -0.11400
C2260       C  0.66321320  0.58465314  0.40341735    -0.12900
C2261       C  0.56354071  0.66829758  0.42328892    -0.11400
C2262       C  0.58459288  0.66292771  0.40259478    -0.12900
C2263       C  0.87364190  0.65441785  0.25997577    -0.11400
C2264       C  0.86002219  0.62756944  0.27760779     0.10700
C2265       C  0.84703607  0.60026627  0.26004654    -0.11400
C2266       C  0.84706747  0.60021409  0.22514389    -0.11400
C2267       C  0.86007549  0.62747063  0.20756066     0.10700
C2268       C  0.87364522  0.65438086  0.22516191    -0.11400
H2269       H  0.88480316  0.67510822  0.27312321     0.14700
H2270       H  0.83658035  0.57926441  0.27336595     0.14700
H2271       H  0.83661110  0.57918610  0.21184204     0.14700
H2272       H  0.88474182  0.67507829  0.21198322     0.14700
C2273       C  0.76167437  0.65761231  0.35900029    -0.11400
C2274       C  0.77923105  0.62741299  0.35870273     0.10700
C2275       C  0.76132471  0.59734620  0.35869206    -0.11400
C2276       C  0.72649641  0.59751380  0.35938166    -0.11400
C2277       C  0.70894138  0.62775188  0.36015778     0.10700
C2278       C  0.72685380  0.65778053  0.35974101    -0.11400
H2279       H  0.77492781  0.68111854  0.35900706     0.14700
H2280       H  0.77421875  0.57372396  0.35736959     0.14700
H2281       H  0.71330732  0.57401130  0.35846374     0.14700
H2282       H  0.71389290  0.68141743  0.36025022     0.14700
C2283       C  0.82540800  0.58450692  0.40175890    -0.11400
C2284       C  0.82077774  0.56368400  0.42290332    -0.12900
C2285       C  0.92380397  0.56387169  0.31727097    -0.11400
C2286       C  0.90298237  0.58486115  0.32228864    -0.12900
C2287       C  0.92381014  0.66848327  0.42210770    -0.11400
C2288       C  0.90303151  0.66315192  0.40102988    -0.12900
C2289       C  0.83027801  0.86507653  0.26024138    -0.11400
C2290       C  0.85987568  0.85967767  0.27802721     0.10700
C2291       C  0.88958592  0.85432082  0.26042935    -0.11400
C2292       C  0.88952657  0.85415854  0.22555051    -0.11400
C2293       C  0.85970354  0.85908020  0.20787985     0.10700
C2294       C  0.83008387  0.86438499  0.22546039    -0.11400
H2295       H  0.80743595  0.87057272  0.27316950     0.14700
H2296       H  0.91267675  0.84982081  0.27367789     0.14700
H2297       H  0.91259307  0.84962968  0.21236061     0.14700
H2298       H  0.80691215  0.86858118  0.21222390     0.14700
C2299       C  0.76126343  0.86134814  0.38966135    -0.11400
C2300       C  0.77892501  0.85728250  0.35967358     0.10700
C2301       C  0.76075702  0.85051187  0.33058768    -0.11400
C2302       C  0.72611860  0.84996166  0.33083754    -0.11400
C2303       C  0.70828193  0.85646284  0.36009425     0.10700
C2304       C  0.72635390  0.86095609  0.38986686    -0.11400
H2305       H  0.77424613  0.86402947  0.41313469     0.14700
H2306       H  0.77302303  0.84566405  0.30728010     0.14700
H2307       H  0.71360033  0.84452091  0.30778370     0.14700
H2308       H  0.71370385  0.86339592  0.41349532     0.14700
C2309       C  0.85870326  0.76102580  0.32837464    -0.11400
C2310       C  0.85979179  0.77865244  0.35851846     0.10700
C2311       C  0.85951543  0.76083149  0.38865565    -0.11400
C2312       C  0.85913833  0.72600015  0.38854706    -0.11400
C2313       C  0.85890738  0.70836121  0.35830492     0.10700
C2314       C  0.85800653  0.72626889  0.32829246    -0.11400
H2315       H  0.85864124  0.77415192  0.30479029     0.14700
H2316       H  0.85889051  0.77378739  0.41229036     0.14700
H2317       H  0.85834747  0.71290432  0.41210975     0.14700
H2318       H  0.85707137  0.71345474  0.30466785     0.14700
C2319       C  0.82511907  0.90293066  0.40130658    -0.11400
C2320       C  0.82038403  0.92393246  0.42222314    -0.12900
C2321       C  0.90320637  0.82424894  0.40174133    -0.11400
C2322       C  0.92377850  0.81928043  0.42302953    -0.12900
C2323       C  0.90284164  0.90273685  0.32311921    -0.11400
C2324       C  0.92371838  0.92371205  0.31786526    -0.12900
C2325       C  0.83627377  0.83547598  0.83478410     0.47400
H2326       H  0.82078225  0.81913981  0.81874970    -0.01600
C2327       C  0.87357561  0.87291949  0.87218903     0.47400
H2328       H  0.88959670  0.88897243  0.88816856    -0.01600
C2329       C  0.85938402  0.85890061  0.81495185    -0.15300
C2330       C  0.81611048  0.85821179  0.85840451    -0.15100
C2331       C  0.85950815  0.81563182  0.85806199    -0.15500
C2332       C  0.87904538  0.87839370  0.83487989    -0.15500
C2333       C  0.83623729  0.87818622  0.87773027    -0.15000
C2334       C  0.87902018  0.83566090  0.87773541    -0.15300
C2335       C  0.87365373  0.61408135  0.87154472     0.47400
H2336       H  0.88989768  0.59822110  0.88747026    -0.01600
C2337       C  0.83585333  0.65123461  0.83423750     0.47400
H2338       H  0.81968087  0.66684742  0.81808232    -0.01600
C2339       C  0.83646266  0.60815227  0.87699388    -0.15300
C2340       C  0.87864071  0.65146011  0.87722359    -0.15100
C2341       C  0.87897908  0.60875325  0.83421932    -0.15500
C2342       C  0.81620389  0.62766143  0.85748098    -0.15500
C2343       C  0.85877028  0.67133924  0.85770032    -0.15000
C2344       C  0.85928121  0.62824485  0.81441500    -0.15300
C2345       C  0.65211106  0.65159173  0.83643816     0.47400
H2346       H  0.66848381  0.66768266  0.82108600    -0.01600
C2347       C  0.61459760  0.61403193  0.87343581     0.47400
H2348       H  0.59849842  0.59801256  0.88932128    -0.01600
C2349       C  0.62937786  0.62796909  0.81606519    -0.15300
C2350       C  0.67193586  0.62832648  0.85974824    -0.15500
C2351       C  0.62857081  0.67131002  0.85950947    -0.15500
C2352       C  0.60937763  0.60858098  0.83604665    -0.15500
C2353       C  0.65186002  0.60857139  0.87909209    -0.15000
C2354       C  0.60907868  0.65127522  0.87898915    -0.15300
C2355       C  0.61388581  0.87247509  0.87341818     0.47400
H2356       H  0.59822975  0.88866495  0.88952987    -0.01600
C2357       C  0.65034360  0.83468543  0.83568738     0.47400
H2358       H  0.66537887  0.81804084  0.81959218    -0.01600
C2359       C  0.65133226  0.87743311  0.87862729    -0.15300
C2360       C  0.60809806  0.83528533  0.87902885    -0.15100
C2361       C  0.60806259  0.87802614  0.83614072    -0.15500
C2362       C  0.67105050  0.85729533  0.85916457    -0.15500
C2363       C  0.62715669  0.81517781  0.85922352    -0.15000
C2364       C  0.62721134  0.85832211  0.81596546    -0.15300
C2365       C  0.61331762  0.87259078  0.61430995     0.47400
H2366       H  0.59735118  0.88856252  0.59821507    -0.01600
C2367       C  0.65054188  0.83520211  0.65191853     0.47400
H2368       H  0.66630442  0.81919966  0.66810153    -0.01600
C2369       C  0.65063074  0.87885731  0.60980846    -0.15300
C2370       C  0.60688502  0.87718020  0.65158595    -0.15100
C2371       C  0.60876762  0.83533417  0.60799007    -0.15500
C2372       C  0.67059632  0.85928553  0.62957292    -0.15500
C2373       C  0.62635496  0.85757672  0.67164275    -0.15000
C2374       C  0.62825949  0.81536628  0.62764100    -0.15300
C2375       C  0.87243043  0.87316311  0.61385374     0.47400
H2376       H  0.88843347  0.88916403  0.59785592    -0.01600
C2377       C  0.83509476  0.83580293  0.65127495     0.47400
H2378       H  0.81918400  0.82002361  0.66748658    -0.01600
C2379       C  0.83508903  0.87919095  0.60897674    -0.15300
C2380       C  0.87721494  0.83588314  0.60778521    -0.15100
C2381       C  0.87864121  0.87795867  0.65115108    -0.15500
C2382       C  0.81509592  0.85959004  0.62864623    -0.15500
C2383       C  0.85759712  0.81585501  0.62736491    -0.15000
C2384       C  0.85907428  0.85838331  0.67103597    -0.15300
C2385       C  0.61386146  0.61388184  0.61356701     0.47400
H2386       H  0.59765638  0.59790171  0.59770056    -0.01600
C2387       C  0.65163848  0.65136673  0.65046076     0.47400
H2388       H  0.66812740  0.66740213  0.66578900    -0.01600
C2389       C  0.65108943  0.60837643  0.60780408    -0.15300
C2390       C  0.60835302  0.65117736  0.60804222    -0.15100
C2391       C  0.60887067  0.60832450  0.65096764    -0.15500
C2392       C  0.67132570  0.62812111  0.62707860    -0.15500
C2393       C  0.62800340  0.67119626  0.62746620    -0.15000
C2394       C  0.62899383  0.62773632  0.67089501    -0.15300
C2395       C  0.87312394  0.61410990  0.61359047     0.47400
H2396       H  0.88920675  0.59823120  0.59759416    -0.01600
C2397       C  0.83568366  0.65126994  0.65105960     0.47400
H2398       H  0.81966250  0.66684154  0.66732541    -0.01600
C2399       C  0.87869090  0.60864890  0.65090293    -0.15300
C2400       C  0.87820187  0.65151354  0.60796103    -0.15100
C2401       C  0.83585020  0.60830012  0.60824941    -0.15500
C2402       C  0.85916949  0.62816889  0.67076764    -0.15500
C2403       C  0.85849763  0.67140772  0.62758762    -0.15000
C2404       C  0.81577607  0.62781880  0.62786770    -0.15300
O2405       O  0.52681951  0.95987436  0.69624389    -0.69900
O2406       O  0.95988860  0.52711909  0.69619855    -0.70100
O2407       O  0.95970466  0.95995183  0.69644126    -0.69900
O2408       O  0.52703623  0.52709718  0.69590624    -0.69900
O2409       O  0.52647768  0.52669217  0.64171013    -0.69900
O2410       O  0.95970962  0.95996355  0.64223599    -0.69900
O2411       O  0.95976405  0.52666175  0.64199436    -0.69900
O2412       O  0.52637429  0.95990767  0.64203825    -0.70100
V2413       V  0.99336071  0.99350936  0.69519897     1.35200
V2414       V  0.99308833  0.99331100  0.64310539     1.35200
C2415       C  0.53777932  0.94848940  0.66903722     0.79400
C2416       C  0.94857016  0.53822167  0.66896986     0.79400
C2417       C  0.94842160  0.94862805  0.66927258     0.79300
C2418       C  0.53801325  0.53828078  0.66858097     0.79300
O2419       O  0.52690854  0.96073238  0.84533070    -0.69900
O2420       O  0.95994288  0.52717590  0.84413805    -0.70100
O2421       O  0.96013568  0.96047897  0.84435619    -0.69900
O2422       O  0.52661360  0.52748868  0.84521114    -0.69900
O2423       O  0.52758286  0.52755430  0.79101560    -0.69900
O2424       O  0.96056435  0.96016592  0.79015688    -0.69900
O2425       O  0.96050910  0.52729705  0.78993271    -0.69900
O2426       O  0.52775412  0.96040446  0.79113639    -0.70100
V2427       V  0.99341344  0.99395553  0.84365433     1.35200
V2428       V  0.99409447  0.99384623  0.79156460     1.35200
C2429       C  0.53866051  0.94929749  0.81852912     0.79400
C2430       C  0.94895452  0.53853822  0.81694152     0.79400
C2431       C  0.94903287  0.94901072  0.81725716     0.79300
C2432       C  0.53829450  0.53893388  0.81838312     0.79300
O2433       O  0.69575050  0.95936593  0.95983572    -0.69900
O2434       O  0.69533543  0.52619030  0.52720388    -0.70100
O2435       O  0.69532917  0.95905294  0.52705056    -0.69900
O2436       O  0.69576134  0.52645099  0.96020277    -0.69900
O2437       O  0.64156388  0.52622093  0.95994900    -0.69900
O2438       O  0.64114166  0.95918076  0.52641239    -0.69900
O2439       O  0.64114169  0.52594030  0.52659075    -0.69900
O2440       O  0.64155549  0.95952408  0.95959726    -0.70100
V2441       V  0.69453573  0.99273106  0.99356619     1.35200
V2442       V  0.64244995  0.99268788  0.99314655     1.35200
C2443       C  0.66860785  0.94827294  0.94830355     0.79400
C2444       C  0.66806277  0.53746765  0.53807323     0.79400
C2445       C  0.66805796  0.94783179  0.53806688     0.79300
C2446       C  0.66863002  0.53778334  0.94894179     0.79300
O2447       O  0.95971365  0.64235092  0.52616714    -0.69900
O2448       O  0.52663482  0.64227986  0.95976119    -0.70100
O2449       O  0.52638569  0.64225343  0.52649205    -0.69900
O2450       O  0.95996395  0.64237830  0.95935853    -0.69900
O2451       O  0.95990260  0.69653974  0.95908352    -0.69900
O2452       O  0.52671269  0.69641546  0.52676598    -0.69900
O2453       O  0.52703912  0.69644172  0.95956861    -0.69900
O2454       O  0.95957895  0.69651004  0.52637025    -0.70100
V2455       V  0.99316512  0.64343147  0.99294271     1.35200
V2456       V  0.99329383  0.69548554  0.99294485     1.35200
C2457       C  0.94839771  0.66930497  0.53762163     0.79400
C2458       C  0.53817546  0.66921140  0.94842022     0.79400
C2459       C  0.53778284  0.66917596  0.53801913     0.79300
C2460       C  0.94876354  0.66934155  0.94776091     0.79300
O2461       O  0.79171683  0.95985287  0.52593149    -0.69900
O2462       O  0.79257634  0.52717498  0.95904205    -0.70100
O2463       O  0.79233299  0.96013791  0.95876112    -0.69900
O2464       O  0.79202577  0.52697023  0.52612719    -0.69900
O2465       O  0.84621575  0.52662303  0.52651151    -0.69900
O2466       O  0.84652252  0.96014127  0.95950738    -0.69900
O2467       O  0.84676479  0.52686735  0.95974740    -0.69900
O2468       O  0.84590614  0.95984723  0.52633894    -0.70100
V2469       V  0.79318161  0.99351866  0.99248288     1.35200
V2470       V  0.84526235  0.99335909  0.99302322     1.35200
C2471       C  0.81875405  0.94853528  0.53744171     0.79400
C2472       C  0.81988642  0.53836819  0.94813703     0.79400
C2473       C  0.81957920  0.94895654  0.94772443     0.79300
C2474       C  0.81917188  0.53813699  0.53758034     0.79300
O2475       O  0.95991118  0.84545280  0.96023726    -0.69900
O2476       O  0.52651330  0.84521128  0.52716019    -0.70100
O2477       O  0.52655228  0.84520177  0.96046944    -0.69900
O2478       O  0.95978581  0.84550936  0.52700981    -0.69900
O2479       O  0.95933222  0.79134256  0.52725372    -0.69900
O2480       O  0.52647473  0.79103045  0.96031195    -0.69900
O2481       O  0.52642732  0.79103660  0.52736403    -0.69900
O2482       O  0.95946787  0.79127990  0.96010881    -0.70100
V2483       V  0.99317187  0.84425186  0.99373526     1.35200
V2484       V  0.99291342  0.79218497  0.99377573     1.35200
C2485       C  0.94855473  0.81850020  0.94873208     0.79400
C2486       C  0.53781507  0.81817519  0.53849318     0.79400
C2487       C  0.53778913  0.81817677  0.94911276     0.79300
C2488       C  0.94826282  0.81858624  0.53840222     0.79300
C2489       C  0.82454393  0.58454997  0.58366354    -0.11400
C2490       C  0.81977551  0.56355821  0.56270927    -0.12900
C2491       C  0.92332847  0.66844080  0.56309757    -0.11400
C2492       C  0.90254243  0.66316790  0.58412965    -0.12900
C2493       C  0.92345117  0.56361651  0.66812934    -0.11400
C2494       C  0.90268607  0.58463777  0.66281284    -0.12900
C2495       C  0.72623754  0.65772329  0.62728743    -0.11400
C2496       C  0.70837451  0.62765889  0.62643665     0.10700
C2497       C  0.72605708  0.59747844  0.62644268    -0.11400
C2498       C  0.76089619  0.59740366  0.62671311    -0.11400
C2499       C  0.77874928  0.62750479  0.62704400     0.10700
C2500       C  0.76107989  0.65764620  0.62761281    -0.11400
H2501       H  0.71322897  0.68133835  0.62737860     0.14700
H2502       H  0.71298660  0.57390719  0.62710456     0.14700
H2503       H  0.77383667  0.57378422  0.62749376     0.14700
H2504       H  0.77424784  0.68119742  0.62792802     0.14700
C2505       C  0.56293033  0.66823517  0.56346206    -0.11400
C2506       C  0.58387705  0.66285585  0.58434465    -0.12900
C2507       C  0.66225599  0.58436573  0.58351305    -0.11400
C2508       C  0.66717756  0.56310994  0.56291672    -0.12900
C2509       C  0.58413884  0.58470059  0.66236651    -0.11400
C2510       C  0.56315842  0.56376983  0.66751774    -0.12900
C2511       C  0.85688176  0.76112123  0.65700490    -0.11400
C2512       C  0.85802319  0.77884022  0.62690455     0.10700
C2513       C  0.85853448  0.76103784  0.59676160    -0.11400
C2514       C  0.85882394  0.72619823  0.59682465    -0.11400
C2515       C  0.85848470  0.70847476  0.62702869     0.10700
C2516       C  0.85689815  0.72634164  0.65704171    -0.11400
H2517       H  0.85633008  0.77418010  0.68060581     0.14700
H2518       H  0.85803554  0.77400458  0.57311989     0.14700
H2519       H  0.85853013  0.71316812  0.57322602     0.14700
H2520       H  0.85594027  0.71348343  0.68065509     0.14700
C2521       C  0.92294776  0.81944903  0.56355092    -0.11400
C2522       C  0.90180703  0.82446692  0.58422281    -0.12900
C2523       C  0.81909216  0.92335146  0.56285539    -0.11400
C2524       C  0.82368356  0.90270321  0.58420450    -0.12900
C2525       C  0.90248733  0.90220601  0.66300922    -0.11400
C2526       C  0.92323257  0.92324628  0.66849146    -0.12900
C2527       C  0.62327186  0.76076763  0.65672912    -0.11400
C2528       C  0.62757273  0.77845371  0.62696674     0.10700
C2529       C  0.63144276  0.76078441  0.59699880    -0.11400
C2530       C  0.63136502  0.72589039  0.59698050    -0.11400
C2531       C  0.62711547  0.70819623  0.62687988     0.10700
C2532       C  0.62260696  0.72599666  0.65657616    -0.11400
H2533       H  0.61978169  0.77391280  0.68003275     0.14700
H2534       H  0.63516591  0.77397274  0.57376031     0.14700
H2535       H  0.63511395  0.71272026  0.57374872     0.14700
H2536       H  0.61773851  0.71310453  0.67957628     0.14700
C2537       C  0.72546422  0.82971582  0.62982774    -0.11400
C2538       C  0.70765150  0.85977012  0.62917925     0.10700
C2539       C  0.72539493  0.88995334  0.62882282    -0.11400
C2540       C  0.76024597  0.89003681  0.62839961    -0.11400
C2541       C  0.77804227  0.85993858  0.62838373     0.10700
C2542       C  0.76030250  0.82979954  0.62943422    -0.11400
H2543       H  0.71242380  0.80609647  0.63012203     0.14700
H2544       H  0.71235428  0.91351764  0.62952447     0.14700
H2545       H  0.77325576  0.91365091  0.62883137     0.14700
H2546       H  0.77339956  0.80623365  0.62950709     0.14700
C2547       C  0.56327931  0.81877692  0.56351677    -0.11400
C2548       C  0.58448528  0.82372299  0.58417781    -0.12900
C2549       C  0.66213142  0.90228350  0.58499500    -0.11400
C2550       C  0.66715710  0.92276650  0.56358731    -0.12900
C2551       C  0.56268868  0.92289864  0.66826830    -0.11400
C2552       C  0.58320745  0.90161500  0.66315499    -0.12900
C2553       C  0.59618639  0.85530873  0.76140718    -0.11400
C2554       C  0.62629151  0.85912757  0.77892531     0.10700
C2555       C  0.65592318  0.86298850  0.76089674    -0.11400
C2556       C  0.65581041  0.86217961  0.72611607    -0.11400
C2557       C  0.62585329  0.85837222  0.70859347     0.10700
C2558       C  0.59594660  0.85507584  0.72647067    -0.11400
H2559       H  0.57299051  0.85199833  0.77474228     0.14700
H2560       H  0.67910842  0.86749198  0.77360766     0.14700
H2561       H  0.67909234  0.86519773  0.71283042     0.14700
H2562       H  0.57255148  0.85168347  0.71342496     0.14700
C2563       C  0.58389782  0.82383776  0.90297064    -0.11400
C2564       C  0.56298894  0.81883368  0.92387256    -0.12900
C2565       C  0.58455337  0.90278456  0.82472816    -0.11400
C2566       C  0.56389478  0.92399246  0.81966386    -0.12900
C2567       C  0.66797158  0.92323544  0.92283061    -0.11400
C2568       C  0.66295808  0.90219924  0.90199666    -0.12900
C2569       C  0.63671121  0.65598600  0.76076287    -0.11400
C2570       C  0.63003472  0.62687532  0.77883346     0.10700
C2571       C  0.62551359  0.59702087  0.76100625    -0.11400
C2572       C  0.62539866  0.59695910  0.72609080    -0.11400
C2573       C  0.62984711  0.62674411  0.70813818     0.10700
C2574       C  0.63665253  0.65590875  0.72610205    -0.11400
H2575       H  0.64196321  0.67917199  0.77311983     0.14700
H2576       H  0.62291407  0.57350465  0.77385268     0.14700
H2577       H  0.62270701  0.57340146  0.71334815     0.14700
H2578       H  0.64193754  0.67902383  0.71367902     0.14700
C2579       C  0.63195911  0.72593642  0.88982203    -0.11400
C2580       C  0.62735363  0.70822281  0.85999779     0.10700
C2581       C  0.62183200  0.72588769  0.83037029    -0.11400
C2582       C  0.62175482  0.76064935  0.83023842    -0.11400
C2583       C  0.62637442  0.77834669  0.85994665     0.10700
C2584       C  0.63133951  0.76078984  0.88982186    -0.11400
H2585       H  0.63648639  0.71280844  0.91296585     0.14700
H2586       H  0.61680572  0.71287151  0.80744041     0.14700
H2587       H  0.61761740  0.77377365  0.80700401     0.14700
H2588       H  0.63545672  0.77405088  0.91296008     0.14700
C2589       C  0.56338613  0.56439481  0.81951846    -0.11400
C2590       C  0.58446533  0.58518689  0.82468150    -0.12900
C2591       C  0.66805565  0.56345359  0.92411385    -0.11400
C2592       C  0.66321348  0.58464857  0.90341593    -0.12900
C2593       C  0.56354025  0.66829017  0.92328842    -0.11400
C2594       C  0.58459193  0.66292010  0.90259381    -0.12900
C2595       C  0.87364218  0.65441884  0.75997636    -0.11400
C2596       C  0.86002317  0.62757073  0.77760934     0.10700
C2597       C  0.84703822  0.60026638  0.76004902    -0.11400
C2598       C  0.84706982  0.60021287  0.72514637    -0.11400
C2599       C  0.86007698  0.62746918  0.70756216     0.10700
C2600       C  0.87364585  0.65438045  0.72516250    -0.11400
H2601       H  0.88480276  0.67511004  0.77312306     0.14700
H2602       H  0.83658320  0.57926463  0.77336916     0.14700
H2603       H  0.83661417  0.57918404  0.71184527     0.14700
H2604       H  0.88474215  0.67507758  0.71198314     0.14700
C2605       C  0.76167352  0.65761282  0.85899982    -0.11400
C2606       C  0.77923176  0.62741441  0.85870321     0.10700
C2607       C  0.76132677  0.59734674  0.85869307    -0.11400
C2608       C  0.72649841  0.59751259  0.85938244    -0.11400
C2609       C  0.70894178  0.62774977  0.86015757     0.10700
C2610       C  0.72685286  0.65777929  0.85974025    -0.11400
H2611       H  0.77492581  0.68111970  0.85900616     0.14700
H2612       H  0.77422192  0.57372508  0.85737123     0.14700
H2613       H  0.71331054  0.57400940  0.85846496     0.14700
H2614       H  0.71389084  0.68141559  0.86024874     0.14700
C2615       C  0.82540910  0.58451054  0.90176056    -0.11400
C2616       C  0.82077797  0.56368741  0.92290450    -0.12900
C2617       C  0.92380382  0.56387322  0.81727331    -0.11400
C2618       C  0.90298301  0.58486341  0.82229116    -0.12900
C2619       C  0.92381114  0.66848645  0.92210894    -0.11400
C2620       C  0.90303247  0.66315589  0.90103095    -0.12900
C2621       C  0.83027661  0.86507524  0.76024007    -0.11400
C2622       C  0.85987443  0.85967888  0.77802645     0.10700
C2623       C  0.88958488  0.85432175  0.76042903    -0.11400
C2624       C  0.88952568  0.85415725  0.72555016    -0.11400
C2625       C  0.85970260  0.85907701  0.70787895     0.10700
C2626       C  0.83008265  0.86438161  0.72545908    -0.11400
H2627       H  0.80743421  0.87057111  0.77316772     0.14700
H2628       H  0.91267578  0.84982322  0.77367795     0.14700
H2629       H  0.91259243  0.84962843  0.71236067     0.14700
H2630       H  0.80691084  0.86857630  0.71222227     0.14700
C2631       C  0.76126174  0.86134934  0.88966141    -0.11400
C2632       C  0.77892308  0.85728437  0.85967340     0.10700
C2633       C  0.76075500  0.85051222  0.83058790    -0.11400
C2634       C  0.72611663  0.84995945  0.83083842    -0.11400
C2635       C  0.70828005  0.85645998  0.86009530     0.10700
C2636       C  0.72635224  0.86095495  0.88986753    -0.11400
H2637       H  0.77424465  0.86403181  0.91313451     0.14700
H2638       H  0.77302092  0.84566506  0.80728013     0.14700
H2639       H  0.71359833  0.84451727  0.80778492     0.14700
H2640       H  0.71370243  0.86339436  0.91349615     0.14700
C2641       C  0.85870389  0.76102915  0.82837480    -0.11400
C2642       C  0.85979104  0.77865599  0.85851857     0.10700
C2643       C  0.85951441  0.76083514  0.88865582    -0.11400
C2644       C  0.85913815  0.72600378  0.88854739    -0.11400
C2645       C  0.85890818  0.70836465  0.85830536     0.10700
C2646       C  0.85800795  0.72627218  0.82829278    -0.11400
H2647       H  0.85864222  0.77415518  0.80479040     0.14700
H2648       H  0.85888862  0.77379114  0.91229046     0.14700
H2649       H  0.85834703  0.71290803  0.91211013     0.14700
H2650       H  0.85707371  0.71345785  0.80466823     0.14700
C2651       C  0.82511660  0.90293407  0.90130618    -0.11400
C2652       C  0.82038232  0.92393550  0.92222340    -0.12900
C2653       C  0.90320414  0.82425333  0.90174149    -0.11400
C2654       C  0.92377600  0.81928418  0.92302975    -0.12900
C2655       C  0.90284067  0.90273973  0.82311827    -0.11400
C2656       C  0.92371845  0.92371419  0.81786480    -0.12900
loop_ 
_geom_bond_atom_site_label_1 
_geom_bond_atom_site_label_2 
_geom_bond_distance 
_geom_bond_site_symmetry_2 
_ccdc_geom_bond_type 
C1            H2   1.109       .  S
C1            C7   1.541       .  S
C1            C6   1.547       .  S
C1            C5   1.543       .  S
C3            H4   1.113       .  S
C3            C9   1.531       .  S
C3            C8   1.529       .  S
C3           C10   1.529       .  S
C5            C8   1.368       .  D
C5          C298   1.482       .  S
C6            C9   1.376       .  D
C6          C308   1.494       .  S
C7           C10   1.371       .  D
C7          C318   1.485       .  S
C8          C331   1.446       .  S
C9          C327   1.444       .  S
C10         C329   1.441       .  S
C11          H12   1.113       .  S
C11          C17   1.529       .  S
C11          C16   1.531       .  S
C11          C15   1.528       .  S
C13          H14   1.111       .  S
C13          C19   1.543       .  S
C13          C18   1.546       .  S
C13          C20   1.541       .  S
C15          C18   1.374       .  D
C15         C291   1.444       .  S
C16          C19   1.373       .  D
C16         C296   1.445       .  S
C17          C20   1.367       .  D
C17         C294   1.443       .  S
C18         C282   1.485       .  S
C19         C321   1.487       .  S
C20         C272   1.478       .  S
C21          H22   1.109       .  S
C21          C27   1.544       .  S
C21          C26   1.543       .  S
C21          C25   1.548       .  S
C23          H24   1.113       .  S
C23          C29   1.528       .  S
C23          C28   1.530       .  S
C23          C30   1.529       .  S
C25          C28   1.376       .  D
C25         C246   1.495       .  S
C26          C29   1.372       .  D
C26         C285   1.486       .  S
C27          C30   1.368       .  D
C27         C256   1.484       .  S
C28         C266   1.445       .  S
C29         C268   1.443       .  S
C30         C270   1.445       .  S
C31          H32   1.113       .  S
C31          C37   1.530       .  S
C31          C36   1.528       .  S
C31          C35   1.530       .  S
C33          H34   1.109       .  S
C33          C39   1.541       .  S
C33          C38   1.549       .  S
C33          C40   1.545       .  S
C35          C38   1.376       .  D
C35         C244   1.444       .  S
C36          C39   1.369       .  D
C36         C239   1.442       .  S
C37          C40   1.370       .  D
C37         C241   1.445       .  S
C38         C311   1.495       .  S
C39         C259   1.480       .  S
C40         C230   1.487       .  S
C41          H42   1.113       .  S
C41          C47   1.529       .  S
C41          C46   1.530       .  S
C41          C45   1.530       .  S
C43          H44   1.111       .  S
C43          C49   1.543       .  S
C43          C48   1.545       .  S
C43          C50   1.543       .  S
C45          C48   1.374       .  D
C45         C225   1.446       .  S
C46          C49   1.370       .  D
C46         C228   1.444       .  S
C47          C50   1.370       .  D
C47         C224   1.441       .  S
C48         C214   1.488       .  S
C49         C233   1.483       .  S
C50         C204   1.483       .  S
C51          H52   1.113       .  S
C51          C57   1.529       .  S
C51          C56   1.529       .  S
C51          C55   1.531       .  S
C53          H54   1.111       .  S
C53          C59   1.544       .  S
C53          C58   1.543       .  S
C53          C60   1.541       .  S
C55          C58   1.374       .  D
C55         C200   1.445       .  S
C56          C59   1.373       .  D
C56         C198   1.443       .  S
C57          C60   1.368       .  D
C57         C201   1.445       .  S
C58         C217   1.487       .  S
C59         C188   1.487       .  S
C60         C301   1.479       .  S
C61          H62   1.113       .  S
C61          C67   1.531       .  S
C61          C66   1.530       .  S
C61          C65   1.529       .  S
C63          H64   1.109       .  S
C63          C69   1.544       .  S
C63          C68   1.543       .  S
C63          C70   1.549       .  S
C65          C68   1.373       .  D
C65         C183   1.444       .  S
C66          C69   1.369       .  D
C66         C182   1.445       .  S
C67          C70   1.377       .  D
C67         C185   1.447       .  S
C68         C172   1.488       .  S
C69         C207   1.487       .  S
C70         C249   1.495       .  S
C71          H72   1.113       .  S
C71          C77   1.529       .  S
C71          C76   1.533       .  S
C71          C75   1.529       .  S
C73          H74   1.111       .  S
C73          C79   1.543       .  S
C73          C78   1.541       .  S
C73          C80   1.545       .  S
C75          C78   1.367       .  D
C75         C170   1.444       .  S
C76          C79   1.374       .  D
C76         C168   1.446       .  S
C77          C80   1.374       .  D
C77         C165   1.445       .  S
C78         C275   1.477       .  S
C79         C191   1.489       .  S
C80         C175   1.487       .  S
O81          C91   1.264       .  A
O81        V1417   1.906   1_455  S
O82          C92   1.264       .  A
O82         V753   1.906   1_545  S
O83          C93   1.264       .  A
O83          V89   1.908       .  S
O84          C94   1.265       .  A
O84        V2081   1.909   1_445  S
O85          C94   1.262       .  A
O85        V2082   1.895   1_445  S
O86          C93   1.261       .  A
O86          V90   1.894       .  S
O87          C92   1.262       .  A
O87         V754   1.895   1_545  S
O88          C91   1.262       .  A
O88        V1418   1.895   1_455  S
V89        O1409   1.906       .  S
V89         O746   1.906       .  S
V89        O2076   1.909       .  S
V89          V90   2.091       .  T
V90        O2077   1.895       .  S
V90         O751   1.895       .  S
V90        O1416   1.895       .  S
C91         C227   1.435       .  S
C92         C169   1.435       .  S
C93         C202   1.435       .  S
C94         C186   1.438       .  S
O95         C105   1.262       .  A
O95        V1431   1.896   1_455  S
O96         C106   1.262       .  A
O96         V767   1.895   1_545  S
O97         C107   1.262       .  A
O97         V103   1.895       .  S
O98         C108   1.262       .  A
O98        V2095   1.895   1_445  S
O99         C108   1.264       .  A
O99        V2096   1.907   1_445  S
O100        C107   1.264       .  A
O100        V104   1.908       .  S
O101        C106   1.264       .  A
O101        V768   1.905   1_545  S
O102        C105   1.264       .  A
O102       V1432   1.906   1_455  S
V103       O1423   1.896       .  S
V103        O760   1.895       .  S
V103       O2090   1.895       .  S
V103        V104   2.091       .  T
V104       O2091   1.907       .  S
V104        O765   1.905       .  S
V104       O1430   1.906       .  S
C105        C242   1.436       .  S
C106        C293   1.434       .  S
C107        C332   1.437       .  S
C108        C265   1.435       .  S
O109        C119   1.264       .  A
O109        V117   1.906       .  S
O110        C120   1.264       .  A
O110       V1113   1.905   1_544  S
O111        C121   1.264       .  A
O111        V449   1.907   1_554  S
O112        C122   1.263       .  A
O112        V781   1.905   1_545  S
O113        C122   1.262       .  A
O113        V782   1.894   1_545  S
O114        C121   1.262       .  A
O114        V450   1.896   1_554  S
O115        C120   1.262       .  A
O115       V1114   1.894   1_544  S
O116        C119   1.262       .  A
O116        V118   1.895       .  S
V117       O1106   1.905       .  S
V117        O443   1.907       .  S
V117        O776   1.905       .  S
V117        V118   2.091       .  T
V118        O777   1.894       .  S
V118        O446   1.896       .  S
V118       O1111   1.894       .  S
C119        C243   1.434       .  S
C120        C184   1.434       .  S
C121        C226   1.436       .  S
C122        C267   1.434       .  S
O123        C133   1.262       .  A
O123        V463   1.895   1_554  S
O124        C134   1.261       .  A
O124       V1459   1.894   1_455  S
O125        C135   1.261       .  A
O125       V1791   1.894   1_454  S
O126        C136   1.261       .  A
O126        V131   1.894       .  S
O127        C136   1.264       .  A
O127        V132   1.907       .  S
O128        C135   1.264       .  A
O128       V1792   1.907   1_454  S
O129        C134   1.264       .  A
O129       V1460   1.907   1_455  S
O130        C133   1.264       .  A
O130        V464   1.908   1_554  S
V131        O455   1.895       .  S
V131       O1452   1.894       .  S
V131       O1785   1.894       .  S
V131        V132   2.091       .  T
V132       O1788   1.907       .  S
V132       O1457   1.907       .  S
V132        O462   1.908       .  S
C133        C167   1.436       .  S
C134        C269   1.435       .  S
C135        C181   1.435       .  S
C136        C295   1.435       .  S
O137        C147   1.264       .  A
O137        V477   1.906   1_554  S
O138        C148   1.263       .  A
O138        V809   1.905   1_545  S
O139        C149   1.264       .  A
O139        V145   1.906       .  S
O140        C150   1.264       .  A
O140       V1141   1.906   1_544  S
O141        C150   1.262       .  A
O141       V1142   1.896   1_544  S
O142        C149   1.262       .  A
O142        V146   1.896       .  S
O143        C148   1.262       .  A
O143        V810   1.897   1_545  S
O144        C147   1.262       .  A
O144        V478   1.897   1_554  S
V145        O469   1.906       .  S
V145        O802   1.905       .  S
V145       O1136   1.906       .  S
V145        V146   2.091       .  T
V146       O1137   1.896       .  S
V146        O807   1.897       .  S
V146        O476   1.897       .  S
C147        C199   1.436       .  S
C148        C292   1.435       .  S
C149        C328   1.435       .  S
C150        C166   1.435       .  S
O151        C161   1.262       .  A
O151        V159   1.894       .  S
O152        C162   1.262       .  A
O152       V1819   1.893   1_454  S
O153        C163   1.261       .  A
O153       V1487   1.894   1_455  S
O154        C164   1.262       .  A
O154        V491   1.894   1_554  S
O155        C164   1.264       .  A
O155        V492   1.905   1_554  S
O156        C163   1.264       .  A
O156       V1488   1.905   1_455  S
O157        C162   1.263       .  A
O157       V1820   1.903   1_454  S
O158        C161   1.263       .  A
O158        V160   1.903       .  S
V159       O1812   1.893       .  S
V159       O1481   1.894       .  S
V159        O486   1.894       .  S
V159        V160   2.091       .  T
V160        O487   1.905       .  S
V160       O1484   1.905       .  S
V160       O1817   1.903       .  S
C161        C330   1.432       .  S
C162        C223   1.432       .  S
C163        C240   1.433       .  S
C164        C197   1.434       .  S
C165        C166   1.206       .  T
C167        C168   1.206       .  T
C169        C170   1.206       .  T
C171        C172   1.404       .  A
C171        C176   1.399       .  A
C171        H177   1.083       .  S
C172        C173   1.405       .  A
C173        C174   1.399       .  A
C173        H178   1.082       .  S
C174        C175   1.405       .  A
C174        H179   1.082       .  S
C175        C176   1.404       .  A
C176        H180   1.083       .  S
C181        C182   1.206       .  T
C183        C184   1.205       .  T
C185        C186   1.207       .  T
C187        C188   1.403       .  A
C187        C192   1.397       .  A
C187        H193   1.083       .  S
C188        C189   1.406       .  A
C189        C190   1.399       .  A
C189        H194   1.082       .  S
C190        C191   1.406       .  A
C190        H195   1.082       .  S
C191        C192   1.404       .  A
C192        H196   1.080       .  S
C197        C198   1.205       .  T
C199        C200   1.206       .  T
C201        C202   1.206       .  T
C203        C204   1.400       .  A
C203        C208   1.397       .  A
C203        H209   1.083       .  S
C204        C205   1.406       .  A
C205        C206   1.401       .  A
C205        H210   1.083       .  S
C206        C207   1.405       .  A
C206        H211   1.083       .  S
C207        C208   1.402       .  A
C208        H212   1.076       .  S
C213        C214   1.404       .  A
C213        C218   1.399       .  A
C213        H219   1.083       .  S
C214        C215   1.406       .  A
C215        C216   1.399       .  A
C215        H220   1.082       .  S
C216        C217   1.405       .  A
C216        H221   1.082       .  S
C217        C218   1.404       .  A
C218        H222   1.083       .  S
C223        C224   1.204       .  T
C225        C226   1.206       .  T
C227        C228   1.206       .  T
C229        C230   1.405       .  A
C229        C234   1.402       .  A
C229        H235   1.083       .  S
C230        C231   1.402       .  A
C231        C232   1.396       .  A
C231        H236   1.076       .  S
C232        C233   1.400       .  A
C232        H237   1.084       .  S
C233        C234   1.406       .  A
C234        H238   1.083       .  S
C239        C240   1.204       .  T
C241        C242   1.206       .  T
C243        C244   1.205       .  T
C245        C246   1.402       .  A
C245        C250   1.391       .  A
C245        H251   1.076       .  S
C246        C247   1.408       .  A
C247        C248   1.401       .  A
C247        H252   1.081       .  S
C248        C249   1.408       .  A
C248        H253   1.081       .  S
C249        C250   1.402       .  A
C250        H254   1.075       .  S
C255        C256   1.404       .  A
C255        C260   1.400       .  A
C255        H261   1.083       .  S
C256        C257   1.402       .  A
C257        C258   1.396       .  A
C257        H262   1.077       .  S
C258        C259   1.400       .  A
C258        H263   1.084       .  S
C259        C260   1.405       .  A
C260        H264   1.083       .  S
C265        C266   1.206       .  T
C267        C268   1.205       .  T
C269        C270   1.206       .  T
C271        C272   1.401       .  A
C271        C276   1.397       .  A
C271        H277   1.081       .  S
C272        C273   1.403       .  A
C273        C274   1.401       .  A
C273        H278   1.083       .  S
C274        C275   1.403       .  A
C274        H279   1.083       .  S
C275        C276   1.401       .  A
C276        H280   1.081       .  S
C281        C282   1.403       .  A
C281        C286   1.398       .  A
C281        H287   1.083       .  S
C282        C283   1.405       .  A
C283        C284   1.398       .  A
C283        H288   1.083       .  S
C284        C285   1.405       .  A
C284        H289   1.082       .  S
C285        C286   1.404       .  A
C286        H290   1.083       .  S
C291        C292   1.206       .  T
C293        C294   1.205       .  T
C295        C296   1.206       .  T
C297        C298   1.402       .  A
C297        C302   1.396       .  A
C297        H303   1.077       .  S
C298        C299   1.404       .  A
C299        C300   1.400       .  A
C299        H304   1.083       .  S
C300        C301   1.404       .  A
C300        H305   1.083       .  S
C301        C302   1.400       .  A
C302        H306   1.084       .  S
C307        C308   1.408       .  A
C307        C312   1.401       .  A
C307        H313   1.081       .  S
C308        C309   1.402       .  A
C309        C310   1.391       .  A
C309        H314   1.076       .  S
C310        C311   1.401       .  A
C310        H315   1.074       .  S
C311        C312   1.408       .  A
C312        H316   1.081       .  S
C317        C318   1.402       .  A
C317        C322   1.396       .  A
C317        H323   1.083       .  S
C318        C319   1.405       .  A
C319        C320   1.399       .  A
C319        H324   1.082       .  S
C320        C321   1.406       .  A
C320        H325   1.082       .  S
C321        C322   1.403       .  A
C322        H326   1.080       .  S
C327        C328   1.206       .  T
C329        C330   1.204       .  T
C331        C332   1.207       .  T
C333        H334   1.109       .  S
C333        C339   1.541       .  S
C333        C338   1.547       .  S
C333        C337   1.543       .  S
C335        H336   1.113       .  S
C335        C341   1.531       .  S
C335        C340   1.529       .  S
C335        C342   1.529       .  S
C337        C340   1.368       .  D
C337        C630   1.482       .  S
C338        C341   1.376       .  D
C338        C640   1.494       .  S
C339        C342   1.371       .  D
C339        C650   1.485       .  S
C340        C663   1.446       .  S
C341        C659   1.444       .  S
C342        C661   1.441       .  S
C343        H344   1.113       .  S
C343        C349   1.529       .  S
C343        C348   1.531       .  S
C343        C347   1.528       .  S
C345        H346   1.111       .  S
C345        C351   1.543       .  S
C345        C350   1.546       .  S
C345        C352   1.541       .  S
C347        C350   1.374       .  D
C347        C623   1.444       .  S
C348        C351   1.373       .  D
C348        C628   1.445       .  S
C349        C352   1.367       .  D
C349        C626   1.443       .  S
C350        C614   1.485       .  S
C351        C653   1.487       .  S
C352        C604   1.478       .  S
C353        H354   1.109       .  S
C353        C359   1.544       .  S
C353        C358   1.543       .  S
C353        C357   1.548       .  S
C355        H356   1.113       .  S
C355        C361   1.528       .  S
C355        C360   1.530       .  S
C355        C362   1.529       .  S
C357        C360   1.376       .  D
C357        C578   1.495       .  S
C358        C361   1.372       .  D
C358        C617   1.486       .  S
C359        C362   1.368       .  D
C359        C588   1.484       .  S
C360        C598   1.445       .  S
C361        C600   1.443       .  S
C362        C602   1.445       .  S
C363        H364   1.113       .  S
C363        C369   1.530       .  S
C363        C368   1.528       .  S
C363        C367   1.530       .  S
C365        H366   1.109       .  S
C365        C371   1.541       .  S
C365        C370   1.549       .  S
C365        C372   1.545       .  S
C367        C370   1.376       .  D
C367        C576   1.444       .  S
C368        C371   1.369       .  D
C368        C571   1.442       .  S
C369        C372   1.370       .  D
C369        C573   1.445       .  S
C370        C643   1.495       .  S
C371        C591   1.480       .  S
C372        C562   1.487       .  S
C373        H374   1.113       .  S
C373        C379   1.529       .  S
C373        C378   1.530       .  S
C373        C377   1.530       .  S
C375        H376   1.111       .  S
C375        C381   1.543       .  S
C375        C380   1.545       .  S
C375        C382   1.543       .  S
C377        C380   1.374       .  D
C377        C557   1.446       .  S
C378        C381   1.370       .  D
C378        C560   1.444       .  S
C379        C382   1.370       .  D
C379        C556   1.441       .  S
C380        C546   1.488       .  S
C381        C565   1.483       .  S
C382        C536   1.483       .  S
C383        H384   1.113       .  S
C383        C389   1.529       .  S
C383        C388   1.529       .  S
C383        C387   1.531       .  S
C385        H386   1.111       .  S
C385        C391   1.544       .  S
C385        C390   1.543       .  S
C385        C392   1.541       .  S
C387        C390   1.374       .  D
C387        C532   1.445       .  S
C388        C391   1.373       .  D
C388        C530   1.443       .  S
C389        C392   1.368       .  D
C389        C533   1.445       .  S
C390        C549   1.487       .  S
C391        C520   1.487       .  S
C392        C633   1.479       .  S
C393        H394   1.113       .  S
C393        C399   1.531       .  S
C393        C398   1.530       .  S
C393        C397   1.529       .  S
C395        H396   1.109       .  S
C395        C401   1.544       .  S
C395        C400   1.543       .  S
C395        C402   1.549       .  S
C397        C400   1.373       .  D
C397        C515   1.444       .  S
C398        C401   1.369       .  D
C398        C514   1.445       .  S
C399        C402   1.377       .  D
C399        C517   1.447       .  S
C400        C504   1.488       .  S
C401        C539   1.487       .  S
C402        C581   1.495       .  S
C403        H404   1.113       .  S
C403        C409   1.529       .  S
C403        C408   1.533       .  S
C403        C407   1.529       .  S
C405        H406   1.111       .  S
C405        C411   1.543       .  S
C405        C410   1.541       .  S
C405        C412   1.545       .  S
C407        C410   1.367       .  D
C407        C502   1.444       .  S
C408        C411   1.374       .  D
C408        C500   1.446       .  S
C409        C412   1.374       .  D
C409        C497   1.445       .  S
C410        C607   1.477       .  S
C411        C523   1.489       .  S
C412        C507   1.487       .  S
O413        C423   1.264       .  A
O413       V1749   1.906   1_455  S
O414        C424   1.264       .  A
O414       V1085   1.906   1_545  S
O415        C425   1.264       .  A
O415        V421   1.908       .  S
O416        C426   1.265       .  A
O416       V2413   1.909   1_445  S
O417        C426   1.262       .  A
O417       V2414   1.895   1_445  S
O418        C425   1.261       .  A
O418        V422   1.894       .  S
O419        C424   1.262       .  A
O419       V1086   1.895   1_545  S
O420        C423   1.262       .  A
O420       V1750   1.895   1_455  S
V421       O1741   1.906       .  S
V421       O1078   1.906       .  S
V421       O2408   1.909       .  S
V421        V422   2.091       .  T
V422       O2409   1.895       .  S
V422       O1083   1.895       .  S
V422       O1748   1.895       .  S
C423        C559   1.435       .  S
C424        C501   1.435       .  S
C425        C534   1.435       .  S
C426        C518   1.438       .  S
O427        C437   1.262       .  A
O427       V1763   1.896   1_455  S
O428        C438   1.262       .  A
O428       V1099   1.895   1_545  S
O429        C439   1.262       .  A
O429        V435   1.895       .  S
O430        C440   1.262       .  A
O430       V2427   1.895   1_445  S
O431        C440   1.264       .  A
O431       V2428   1.907   1_445  S
O432        C439   1.264       .  A
O432        V436   1.908       .  S
O433        C438   1.264       .  A
O433       V1100   1.905   1_545  S
O434        C437   1.264       .  A
O434       V1764   1.906   1_455  S
V435       O1755   1.896       .  S
V435       O1092   1.895       .  S
V435       O2422   1.895       .  S
V435        V436   2.091       .  T
V436       O2423   1.907       .  S
V436       O1097   1.905       .  S
V436       O1762   1.906       .  S
C437        C574   1.436       .  S
C438        C625   1.434       .  S
C439        C664   1.437       .  S
C440        C597   1.435       .  S
O441        C451   1.264       .  A
O441        V449   1.906       .  S
O442        C452   1.264       .  A
O442        V781   1.905   1_545  S
O443        C453   1.264       .  A
O444        C454   1.263       .  A
O444       V1113   1.905   1_545  S
O445        C454   1.262       .  A
O445       V1114   1.894   1_545  S
O446        C453   1.262       .  A
O447        C452   1.262       .  A
O447        V782   1.894   1_545  S
O448        C451   1.262       .  A
O448        V450   1.895       .  S
V449        O774   1.905   1_556  S
V449       O1108   1.905       .  S
V449        V450   2.091       .  T
V450       O1109   1.894       .  S
V450        O779   1.894   1_556  S
C451        C575   1.434       .  S
C452        C516   1.434       .  S
C453        C558   1.436       .  S
C454        C599   1.434       .  S
O455        C465   1.262       .  A
O456        C466   1.261       .  A
O456       V1791   1.894   1_455  S
O457        C467   1.261       .  A
O457       V1459   1.894   1_455  S
O458        C468   1.261       .  A
O458        V463   1.894       .  S
O459        C468   1.264       .  A
O459        V464   1.907       .  S
O460        C467   1.264       .  A
O460       V1460   1.907   1_455  S
O461        C466   1.264       .  A
O461       V1792   1.907   1_455  S
O462        C465   1.264       .  A
V463       O1784   1.894       .  S
V463       O1453   1.894   1_556  S
V463        V464   2.091       .  T
V464       O1456   1.907   1_556  S
V464       O1789   1.907       .  S
C465        C499   1.436       .  S
C466        C601   1.435       .  S
C467        C513   1.435       .  S
C468        C627   1.435       .  S
O469        C479   1.264       .  A
O470        C480   1.263       .  A
O470       V1141   1.905   1_545  S
O471        C481   1.264       .  A
O471        V477   1.906       .  S
O472        C482   1.264       .  A
O472        V809   1.906   1_545  S
O473        C482   1.262       .  A
O473        V810   1.896   1_545  S
O474        C481   1.262       .  A
O474        V478   1.896       .  S
O475        C480   1.262       .  A
O475       V1142   1.897   1_545  S
O476        C479   1.262       .  A
V477       O1134   1.905       .  S
V477        O804   1.906   1_556  S
V477        V478   2.091       .  T
V478        O805   1.896   1_556  S
V478       O1139   1.897       .  S
C479        C531   1.436       .  S
C480        C624   1.435       .  S
C481        C660   1.435       .  S
C482        C498   1.435       .  S
O483        C493   1.262       .  A
O483        V491   1.894       .  S
O484        C494   1.262       .  A
O484       V1487   1.893   1_455  S
O485        C495   1.261       .  A
O485       V1819   1.894   1_455  S
O486        C496   1.262       .  A
O487        C496   1.264       .  A
O488        C495   1.264       .  A
O488       V1820   1.905   1_455  S
O489        C494   1.263       .  A
O489       V1488   1.903   1_455  S
O490        C493   1.263       .  A
O490        V492   1.903       .  S
V491       O1480   1.893   1_556  S
V491       O1813   1.894       .  S
V491        V492   2.091       .  T
V492       O1816   1.905       .  S
V492       O1485   1.903   1_556  S
C493        C662   1.432       .  S
C494        C555   1.432       .  S
C495        C572   1.433       .  S
C496        C529   1.434       .  S
C497        C498   1.206       .  T
C499        C500   1.206       .  T
C501        C502   1.206       .  T
C503        C504   1.404       .  A
C503        C508   1.399       .  A
C503        H509   1.083       .  S
C504        C505   1.405       .  A
C505        C506   1.399       .  A
C505        H510   1.082       .  S
C506        C507   1.405       .  A
C506        H511   1.082       .  S
C507        C508   1.404       .  A
C508        H512   1.083       .  S
C513        C514   1.206       .  T
C515        C516   1.205       .  T
C517        C518   1.207       .  T
C519        C520   1.403       .  A
C519        C524   1.397       .  A
C519        H525   1.083       .  S
C520        C521   1.406       .  A
C521        C522   1.399       .  A
C521        H526   1.082       .  S
C522        C523   1.406       .  A
C522        H527   1.082       .  S
C523        C524   1.404       .  A
C524        H528   1.080       .  S
C529        C530   1.205       .  T
C531        C532   1.206       .  T
C533        C534   1.206       .  T
C535        C536   1.400       .  A
C535        C540   1.397       .  A
C535        H541   1.083       .  S
C536        C537   1.406       .  A
C537        C538   1.401       .  A
C537        H542   1.083       .  S
C538        C539   1.405       .  A
C538        H543   1.083       .  S
C539        C540   1.402       .  A
C540        H544   1.076       .  S
C545        C546   1.404       .  A
C545        C550   1.399       .  A
C545        H551   1.083       .  S
C546        C547   1.406       .  A
C547        C548   1.399       .  A
C547        H552   1.082       .  S
C548        C549   1.405       .  A
C548        H553   1.082       .  S
C549        C550   1.404       .  A
C550        H554   1.083       .  S
C555        C556   1.204       .  T
C557        C558   1.206       .  T
C559        C560   1.206       .  T
C561        C562   1.405       .  A
C561        C566   1.402       .  A
C561        H567   1.083       .  S
C562        C563   1.402       .  A
C563        C564   1.396       .  A
C563        H568   1.076       .  S
C564        C565   1.400       .  A
C564        H569   1.084       .  S
C565        C566   1.406       .  A
C566        H570   1.083       .  S
C571        C572   1.204       .  T
C573        C574   1.206       .  T
C575        C576   1.205       .  T
C577        C578   1.402       .  A
C577        C582   1.391       .  A
C577        H583   1.076       .  S
C578        C579   1.408       .  A
C579        C580   1.401       .  A
C579        H584   1.081       .  S
C580        C581   1.408       .  A
C580        H585   1.081       .  S
C581        C582   1.402       .  A
C582        H586   1.075       .  S
C587        C588   1.404       .  A
C587        C592   1.400       .  A
C587        H593   1.083       .  S
C588        C589   1.402       .  A
C589        C590   1.396       .  A
C589        H594   1.077       .  S
C590        C591   1.400       .  A
C590        H595   1.084       .  S
C591        C592   1.405       .  A
C592        H596   1.083       .  S
C597        C598   1.206       .  T
C599        C600   1.205       .  T
C601        C602   1.206       .  T
C603        C604   1.401       .  A
C603        C608   1.397       .  A
C603        H609   1.081       .  S
C604        C605   1.403       .  A
C605        C606   1.401       .  A
C605        H610   1.083       .  S
C606        C607   1.403       .  A
C606        H611   1.083       .  S
C607        C608   1.401       .  A
C608        H612   1.081       .  S
C613        C614   1.403       .  A
C613        C618   1.398       .  A
C613        H619   1.083       .  S
C614        C615   1.405       .  A
C615        C616   1.398       .  A
C615        H620   1.083       .  S
C616        C617   1.405       .  A
C616        H621   1.082       .  S
C617        C618   1.404       .  A
C618        H622   1.083       .  S
C623        C624   1.206       .  T
C625        C626   1.205       .  T
C627        C628   1.206       .  T
C629        C630   1.402       .  A
C629        C634   1.396       .  A
C629        H635   1.077       .  S
C630        C631   1.404       .  A
C631        C632   1.400       .  A
C631        H636   1.083       .  S
C632        C633   1.404       .  A
C632        H637   1.083       .  S
C633        C634   1.400       .  A
C634        H638   1.084       .  S
C639        C640   1.408       .  A
C639        C644   1.401       .  A
C639        H645   1.081       .  S
C640        C641   1.402       .  A
C641        C642   1.391       .  A
C641        H646   1.076       .  S
C642        C643   1.401       .  A
C642        H647   1.074       .  S
C643        C644   1.408       .  A
C644        H648   1.081       .  S
C649        C650   1.402       .  A
C649        C654   1.396       .  A
C649        H655   1.083       .  S
C650        C651   1.405       .  A
C651        C652   1.399       .  A
C651        H656   1.082       .  S
C652        C653   1.406       .  A
C652        H657   1.082       .  S
C653        C654   1.403       .  A
C654        H658   1.080       .  S
C659        C660   1.206       .  T
C661        C662   1.204       .  T
C663        C664   1.207       .  T
C665        H666   1.109       .  S
C665        C671   1.541       .  S
C665        C670   1.547       .  S
C665        C669   1.543       .  S
C667        H668   1.113       .  S
C667        C673   1.531       .  S
C667        C672   1.529       .  S
C667        C674   1.529       .  S
C669        C672   1.368       .  D
C669        C962   1.482       .  S
C670        C673   1.376       .  D
C670        C972   1.494       .  S
C671        C674   1.371       .  D
C671        C982   1.485       .  S
C672        C995   1.446       .  S
C673        C991   1.444       .  S
C674        C993   1.441       .  S
C675        H676   1.113       .  S
C675        C681   1.529       .  S
C675        C680   1.531       .  S
C675        C679   1.528       .  S
C677        H678   1.111       .  S
C677        C683   1.543       .  S
C677        C682   1.546       .  S
C677        C684   1.541       .  S
C679        C682   1.374       .  D
C679        C955   1.444       .  S
C680        C683   1.373       .  D
C680        C960   1.445       .  S
C681        C684   1.367       .  D
C681        C958   1.443       .  S
C682        C946   1.485       .  S
C683        C985   1.487       .  S
C684        C936   1.478       .  S
C685        H686   1.109       .  S
C685        C691   1.544       .  S
C685        C690   1.543       .  S
C685        C689   1.548       .  S
C687        H688   1.113       .  S
C687        C693   1.528       .  S
C687        C692   1.530       .  S
C687        C694   1.529       .  S
C689        C692   1.376       .  D
C689        C910   1.495       .  S
C690        C693   1.372       .  D
C690        C949   1.486       .  S
C691        C694   1.368       .  D
C691        C920   1.484       .  S
C692        C930   1.445       .  S
C693        C932   1.443       .  S
C694        C934   1.445       .  S
C695        H696   1.113       .  S
C695        C701   1.530       .  S
C695        C700   1.528       .  S
C695        C699   1.530       .  S
C697        H698   1.109       .  S
C697        C703   1.541       .  S
C697        C702   1.549       .  S
C697        C704   1.545       .  S
C699        C702   1.376       .  D
C699        C908   1.444       .  S
C700        C703   1.369       .  D
C700        C903   1.442       .  S
C701        C704   1.370       .  D
C701        C905   1.445       .  S
C702        C975   1.495       .  S
C703        C923   1.480       .  S
C704        C894   1.487       .  S
C705        H706   1.113       .  S
C705        C711   1.529       .  S
C705        C710   1.530       .  S
C705        C709   1.530       .  S
C707        H708   1.111       .  S
C707        C713   1.543       .  S
C707        C712   1.545       .  S
C707        C714   1.543       .  S
C709        C712   1.374       .  D
C709        C889   1.446       .  S
C710        C713   1.370       .  D
C710        C892   1.444       .  S
C711        C714   1.370       .  D
C711        C888   1.441       .  S
C712        C878   1.488       .  S
C713        C897   1.483       .  S
C714        C868   1.483       .  S
C715        H716   1.113       .  S
C715        C721   1.529       .  S
C715        C720   1.529       .  S
C715        C719   1.531       .  S
C717        H718   1.111       .  S
C717        C723   1.544       .  S
C717        C722   1.543       .  S
C717        C724   1.541       .  S
C719        C722   1.374       .  D
C719        C864   1.445       .  S
C720        C723   1.373       .  D
C720        C862   1.443       .  S
C721        C724   1.368       .  D
C721        C865   1.445       .  S
C722        C881   1.487       .  S
C723        C852   1.487       .  S
C724        C965   1.479       .  S
C725        H726   1.113       .  S
C725        C731   1.531       .  S
C725        C730   1.530       .  S
C725        C729   1.529       .  S
C727        H728   1.109       .  S
C727        C733   1.544       .  S
C727        C732   1.543       .  S
C727        C734   1.549       .  S
C729        C732   1.373       .  D
C729        C847   1.444       .  S
C730        C733   1.369       .  D
C730        C846   1.445       .  S
C731        C734   1.377       .  D
C731        C849   1.447       .  S
C732        C836   1.488       .  S
C733        C871   1.487       .  S
C734        C913   1.495       .  S
C735        H736   1.113       .  S
C735        C741   1.529       .  S
C735        C740   1.533       .  S
C735        C739   1.529       .  S
C737        H738   1.111       .  S
C737        C743   1.543       .  S
C737        C742   1.541       .  S
C737        C744   1.545       .  S
C739        C742   1.367       .  D
C739        C834   1.444       .  S
C740        C743   1.374       .  D
C740        C832   1.446       .  S
C741        C744   1.374       .  D
C741        C829   1.445       .  S
C742        C939   1.477       .  S
C743        C855   1.489       .  S
C744        C839   1.487       .  S
O745        C755   1.264       .  A
O745       V2081   1.906   1_455  S
O746        C756   1.264       .  A
O747        C757   1.264       .  A
O747        V753   1.908       .  S
O748        C758   1.265       .  A
O748       V1417   1.909   1_455  S
O749        C758   1.262       .  A
O749       V1418   1.895   1_455  S
O750        C757   1.261       .  A
O750        V754   1.894       .  S
O751        C756   1.262       .  A
O752        C755   1.262       .  A
O752       V2082   1.895   1_455  S
V753       O2073   1.906       .  S
V753       O1412   1.909   1_565  S
V753        V754   2.091       .  T
V754       O1413   1.895   1_565  S
V754       O2080   1.895       .  S
C755        C891   1.435       .  S
C756        C833   1.435       .  S
C757        C866   1.435       .  S
C758        C850   1.438       .  S
O759        C769   1.262       .  A
O759       V2095   1.896   1_455  S
O760        C770   1.262       .  A
O761        C771   1.262       .  A
O761        V767   1.895       .  S
O762        C772   1.262       .  A
O762       V1431   1.895   1_455  S
O763        C772   1.264       .  A
O763       V1432   1.907   1_455  S
O764        C771   1.264       .  A
O764        V768   1.908       .  S
O765        C770   1.264       .  A
O766        C769   1.264       .  A
O766       V2096   1.906   1_455  S
V767       O2087   1.896       .  S
V767       O1426   1.895   1_565  S
V767        V768   2.091       .  T
V768       O1427   1.907   1_565  S
V768       O2094   1.906       .  S
C769        C906   1.436       .  S
C770        C957   1.434       .  S
C771        C996   1.436       .  S
C772        C929   1.435       .  S
O773        C783   1.264       .  A
O773        V781   1.906       .  S
O774        C784   1.264       .  A
O775        C785   1.264       .  A
O775       V1113   1.907   1_554  S
O776        C786   1.263       .  A
O777        C786   1.262       .  A
O778        C785   1.262       .  A
O778       V1114   1.896   1_554  S
O779        C784   1.262       .  A
O780        C783   1.262       .  A
O780        V782   1.895       .  S
V781       O1107   1.907       .  S
V781        V782   2.091       .  T
V782       O1110   1.896       .  S
C783        C907   1.434       .  S
C784        C848   1.434       .  S
C785        C890   1.436       .  S
C786        C931   1.434       .  S
O787        C797   1.262       .  A
O787       V1127   1.895   1_554  S
O788        C798   1.261       .  A
O788       V2123   1.894   1_455  S
O789        C799   1.261       .  A
O789       V2455   1.894   1_454  S
O790        C800   1.261       .  A
O790        V795   1.894       .  S
O791        C800   1.264       .  A
O791        V796   1.907       .  S
O792        C799   1.264       .  A
O792       V2456   1.907   1_454  S
O793        C798   1.264       .  A
O793       V2124   1.907   1_455  S
O794        C797   1.264       .  A
O794       V1128   1.908   1_554  S
V795       O1119   1.895       .  S
V795       O2116   1.894       .  S
V795       O2449   1.894       .  S
V795        V796   2.091       .  T
V796       O2452   1.907       .  S
V796       O2121   1.907       .  S
V796       O1126   1.908       .  S
C797        C831   1.436       .  S
C798        C933   1.435       .  S
C799        C845   1.435       .  S
C800        C959   1.435       .  S
O801        C811   1.264       .  A
O801       V1141   1.906   1_554  S
O802        C812   1.263       .  A
O803        C813   1.264       .  A
O803        V809   1.906       .  S
O804        C814   1.264       .  A
O805        C814   1.262       .  A
O806        C813   1.262       .  A
O806        V810   1.896       .  S
O807        C812   1.262       .  A
O808        C811   1.262       .  A
O808       V1142   1.897   1_554  S
V809       O1133   1.906       .  S
V809        V810   2.091       .  T
V810       O1140   1.897       .  S
C811        C863   1.436       .  S
C812        C956   1.435       .  S
C813        C992   1.435       .  S
C814        C830   1.435       .  S
O815        C825   1.262       .  A
O815        V823   1.894       .  S
O816        C826   1.262       .  A
O816       V2483   1.893   1_454  S
O817        C827   1.261       .  A
O817       V2151   1.894   1_455  S
O818        C828   1.262       .  A
O818       V1155   1.894   1_554  S
O819        C828   1.264       .  A
O819       V1156   1.905   1_554  S
O820        C827   1.264       .  A
O820       V2152   1.905   1_455  S
O821        C826   1.263       .  A
O821       V2484   1.903   1_454  S
O822        C825   1.263       .  A
O822        V824   1.903       .  S
V823       O2476   1.893       .  S
V823       O2145   1.894       .  S
V823       O1150   1.894       .  S
V823        V824   2.091       .  T
V824       O1151   1.905       .  S
V824       O2148   1.905       .  S
V824       O2481   1.903       .  S
C825        C994   1.432       .  S
C826        C887   1.432       .  S
C827        C904   1.433       .  S
C828        C861   1.434       .  S
C829        C830   1.206       .  T
C831        C832   1.206       .  T
C833        C834   1.206       .  T
C835        C836   1.404       .  A
C835        C840   1.399       .  A
C835        H841   1.083       .  S
C836        C837   1.405       .  A
C837        C838   1.399       .  A
C837        H842   1.082       .  S
C838        C839   1.405       .  A
C838        H843   1.082       .  S
C839        C840   1.404       .  A
C840        H844   1.083       .  S
C845        C846   1.206       .  T
C847        C848   1.205       .  T
C849        C850   1.207       .  T
C851        C852   1.403       .  A
C851        C856   1.397       .  A
C851        H857   1.083       .  S
C852        C853   1.406       .  A
C853        C854   1.399       .  A
C853        H858   1.082       .  S
C854        C855   1.406       .  A
C854        H859   1.082       .  S
C855        C856   1.404       .  A
C856        H860   1.080       .  S
C861        C862   1.205       .  T
C863        C864   1.206       .  T
C865        C866   1.206       .  T
C867        C868   1.400       .  A
C867        C872   1.397       .  A
C867        H873   1.083       .  S
C868        C869   1.406       .  A
C869        C870   1.401       .  A
C869        H874   1.083       .  S
C870        C871   1.405       .  A
C870        H875   1.083       .  S
C871        C872   1.402       .  A
C872        H876   1.076       .  S
C877        C878   1.404       .  A
C877        C882   1.399       .  A
C877        H883   1.083       .  S
C878        C879   1.406       .  A
C879        C880   1.399       .  A
C879        H884   1.082       .  S
C880        C881   1.405       .  A
C880        H885   1.082       .  S
C881        C882   1.404       .  A
C882        H886   1.083       .  S
C887        C888   1.204       .  T
C889        C890   1.206       .  T
C891        C892   1.206       .  T
C893        C894   1.405       .  A
C893        C898   1.402       .  A
C893        H899   1.083       .  S
C894        C895   1.402       .  A
C895        C896   1.396       .  A
C895        H900   1.076       .  S
C896        C897   1.400       .  A
C896        H901   1.084       .  S
C897        C898   1.406       .  A
C898        H902   1.083       .  S
C903        C904   1.204       .  T
C905        C906   1.206       .  T
C907        C908   1.205       .  T
C909        C910   1.402       .  A
C909        C914   1.391       .  A
C909        H915   1.076       .  S
C910        C911   1.408       .  A
C911        C912   1.401       .  A
C911        H916   1.081       .  S
C912        C913   1.408       .  A
C912        H917   1.081       .  S
C913        C914   1.402       .  A
C914        H918   1.075       .  S
C919        C920   1.404       .  A
C919        C924   1.400       .  A
C919        H925   1.083       .  S
C920        C921   1.402       .  A
C921        C922   1.396       .  A
C921        H926   1.077       .  S
C922        C923   1.400       .  A
C922        H927   1.084       .  S
C923        C924   1.405       .  A
C924        H928   1.083       .  S
C929        C930   1.206       .  T
C931        C932   1.205       .  T
C933        C934   1.206       .  T
C935        C936   1.401       .  A
C935        C940   1.397       .  A
C935        H941   1.081       .  S
C936        C937   1.403       .  A
C937        C938   1.401       .  A
C937        H942   1.083       .  S
C938        C939   1.403       .  A
C938        H943   1.083       .  S
C939        C940   1.401       .  A
C940        H944   1.081       .  S
C945        C946   1.403       .  A
C945        C950   1.398       .  A
C945        H951   1.083       .  S
C946        C947   1.405       .  A
C947        C948   1.398       .  A
C947        H952   1.083       .  S
C948        C949   1.405       .  A
C948        H953   1.082       .  S
C949        C950   1.404       .  A
C950        H954   1.083       .  S
C955        C956   1.206       .  T
C957        C958   1.205       .  T
C959        C960   1.206       .  T
C961        C962   1.402       .  A
C961        C966   1.396       .  A
C961        H967   1.077       .  S
C962        C963   1.404       .  A
C963        C964   1.400       .  A
C963        H968   1.083       .  S
C964        C965   1.404       .  A
C964        H969   1.083       .  S
C965        C966   1.400       .  A
C966        H970   1.084       .  S
C971        C972   1.408       .  A
C971        C976   1.401       .  A
C971        H977   1.081       .  S
C972        C973   1.402       .  A
C973        C974   1.391       .  A
C973        H978   1.076       .  S
C974        C975   1.401       .  A
C974        H979   1.074       .  S
C975        C976   1.408       .  A
C976        H980   1.081       .  S
C981        C982   1.402       .  A
C981        C986   1.396       .  A
C981        H987   1.083       .  S
C982        C983   1.405       .  A
C983        C984   1.399       .  A
C983        H988   1.082       .  S
C984        C985   1.406       .  A
C984        H989   1.082       .  S
C985        C986   1.403       .  A
C986        H990   1.080       .  S
C991        C992   1.206       .  T
C993        C994   1.204       .  T
C995        C996   1.206       .  T
C997        H998   1.109       .  S
C997       C1003   1.541       .  S
C997       C1002   1.547       .  S
C997       C1001   1.543       .  S
C999       H1000   1.113       .  S
C999       C1005   1.531       .  S
C999       C1004   1.529       .  S
C999       C1006   1.529       .  S
C1001      C1004   1.368       .  D
C1001      C1294   1.482       .  S
C1002      C1005   1.376       .  D
C1002      C1304   1.494       .  S
C1003      C1006   1.371       .  D
C1003      C1314   1.485       .  S
C1004      C1327   1.446       .  S
C1005      C1323   1.444       .  S
C1006      C1325   1.441       .  S
C1007      H1008   1.113       .  S
C1007      C1013   1.529       .  S
C1007      C1012   1.531       .  S
C1007      C1011   1.528       .  S
C1009      H1010   1.111       .  S
C1009      C1015   1.543       .  S
C1009      C1014   1.546       .  S
C1009      C1016   1.541       .  S
C1011      C1014   1.374       .  D
C1011      C1287   1.444       .  S
C1012      C1015   1.373       .  D
C1012      C1292   1.445       .  S
C1013      C1016   1.367       .  D
C1013      C1290   1.443       .  S
C1014      C1278   1.485       .  S
C1015      C1317   1.487       .  S
C1016      C1268   1.478       .  S
C1017      H1018   1.109       .  S
C1017      C1023   1.544       .  S
C1017      C1022   1.543       .  S
C1017      C1021   1.548       .  S
C1019      H1020   1.113       .  S
C1019      C1025   1.528       .  S
C1019      C1024   1.530       .  S
C1019      C1026   1.529       .  S
C1021      C1024   1.376       .  D
C1021      C1242   1.495       .  S
C1022      C1025   1.372       .  D
C1022      C1281   1.486       .  S
C1023      C1026   1.368       .  D
C1023      C1252   1.484       .  S
C1024      C1262   1.445       .  S
C1025      C1264   1.443       .  S
C1026      C1266   1.445       .  S
C1027      H1028   1.113       .  S
C1027      C1033   1.530       .  S
C1027      C1032   1.528       .  S
C1027      C1031   1.530       .  S
C1029      H1030   1.109       .  S
C1029      C1035   1.541       .  S
C1029      C1034   1.549       .  S
C1029      C1036   1.545       .  S
C1031      C1034   1.376       .  D
C1031      C1240   1.444       .  S
C1032      C1035   1.369       .  D
C1032      C1235   1.442       .  S
C1033      C1036   1.370       .  D
C1033      C1237   1.445       .  S
C1034      C1307   1.495       .  S
C1035      C1255   1.480       .  S
C1036      C1226   1.487       .  S
C1037      H1038   1.113       .  S
C1037      C1043   1.529       .  S
C1037      C1042   1.530       .  S
C1037      C1041   1.530       .  S
C1039      H1040   1.111       .  S
C1039      C1045   1.543       .  S
C1039      C1044   1.545       .  S
C1039      C1046   1.543       .  S
C1041      C1044   1.374       .  D
C1041      C1221   1.446       .  S
C1042      C1045   1.370       .  D
C1042      C1224   1.444       .  S
C1043      C1046   1.370       .  D
C1043      C1220   1.441       .  S
C1044      C1210   1.488       .  S
C1045      C1229   1.483       .  S
C1046      C1200   1.483       .  S
C1047      H1048   1.113       .  S
C1047      C1053   1.529       .  S
C1047      C1052   1.529       .  S
C1047      C1051   1.531       .  S
C1049      H1050   1.111       .  S
C1049      C1055   1.544       .  S
C1049      C1054   1.543       .  S
C1049      C1056   1.541       .  S
C1051      C1054   1.374       .  D
C1051      C1196   1.445       .  S
C1052      C1055   1.373       .  D
C1052      C1194   1.443       .  S
C1053      C1056   1.368       .  D
C1053      C1197   1.445       .  S
C1054      C1213   1.487       .  S
C1055      C1184   1.487       .  S
C1056      C1297   1.479       .  S
C1057      H1058   1.113       .  S
C1057      C1063   1.531       .  S
C1057      C1062   1.530       .  S
C1057      C1061   1.529       .  S
C1059      H1060   1.109       .  S
C1059      C1065   1.544       .  S
C1059      C1064   1.543       .  S
C1059      C1066   1.549       .  S
C1061      C1064   1.373       .  D
C1061      C1179   1.444       .  S
C1062      C1065   1.369       .  D
C1062      C1178   1.445       .  S
C1063      C1066   1.377       .  D
C1063      C1181   1.447       .  S
C1064      C1168   1.488       .  S
C1065      C1203   1.487       .  S
C1066      C1245   1.495       .  S
C1067      H1068   1.113       .  S
C1067      C1073   1.529       .  S
C1067      C1072   1.533       .  S
C1067      C1071   1.529       .  S
C1069      H1070   1.111       .  S
C1069      C1075   1.543       .  S
C1069      C1074   1.541       .  S
C1069      C1076   1.545       .  S
C1071      C1074   1.367       .  D
C1071      C1166   1.444       .  S
C1072      C1075   1.374       .  D
C1072      C1164   1.446       .  S
C1073      C1076   1.374       .  D
C1073      C1161   1.445       .  S
C1074      C1271   1.477       .  S
C1075      C1187   1.489       .  S
C1076      C1171   1.487       .  S
O1077      C1087   1.264       .  A
O1077      V2413   1.906   1_455  S
O1078      C1088   1.264       .  A
O1079      C1089   1.264       .  A
O1079      V1085   1.908       .  S
O1080      C1090   1.265       .  A
O1080      V1749   1.909   1_455  S
O1081      C1090   1.262       .  A
O1081      V1750   1.895   1_455  S
O1082      C1089   1.261       .  A
O1082      V1086   1.894       .  S
O1083      C1088   1.262       .  A
O1084      C1087   1.262       .  A
O1084      V2414   1.895   1_455  S
V1085      O2405   1.906       .  S
V1085      O1744   1.909   1_565  S
V1085      V1086   2.091       .  T
V1086      O1745   1.895   1_565  S
V1086      O2412   1.895       .  S
C1087      C1223   1.435       .  S
C1088      C1165   1.435       .  S
C1089      C1198   1.435       .  S
C1090      C1182   1.438       .  S
O1091      C1101   1.262       .  A
O1091      V2427   1.896   1_455  S
O1092      C1102   1.262       .  A
O1093      C1103   1.262       .  A
O1093      V1099   1.895       .  S
O1094      C1104   1.262       .  A
O1094      V1763   1.895   1_455  S
O1095      C1104   1.264       .  A
O1095      V1764   1.907   1_455  S
O1096      C1103   1.264       .  A
O1096      V1100   1.908       .  S
O1097      C1102   1.264       .  A
O1098      C1101   1.264       .  A
O1098      V2428   1.906   1_455  S
V1099      O2419   1.896       .  S
V1099      O1758   1.895   1_565  S
V1099      V1100   2.091       .  T
V1100      O1759   1.907   1_565  S
V1100      O2426   1.906       .  S
C1101      C1238   1.436       .  S
C1102      C1289   1.434       .  S
C1103      C1328   1.437       .  S
C1104      C1261   1.435       .  S
O1105      C1115   1.264       .  A
O1105      V1113   1.906       .  S
O1106      C1116   1.264       .  A
O1107      C1117   1.264       .  A
O1108      C1118   1.263       .  A
O1109      C1118   1.262       .  A
O1110      C1117   1.262       .  A
O1111      C1116   1.262       .  A
O1112      C1115   1.262       .  A
O1112      V1114   1.895       .  S
V1113      V1114   2.091       .  T
C1115      C1239   1.434       .  S
C1116      C1180   1.434       .  S
C1117      C1222   1.436       .  S
C1118      C1263   1.434       .  S
O1119      C1129   1.262       .  A
O1120      C1130   1.261       .  A
O1120      V2455   1.894   1_455  S
O1121      C1131   1.261       .  A
O1121      V2123   1.894   1_455  S
O1122      C1132   1.261       .  A
O1122      V1127   1.894       .  S
O1123      C1132   1.264       .  A
O1123      V1128   1.907       .  S
O1124      C1131   1.264       .  A
O1124      V2124   1.907   1_455  S
O1125      C1130   1.264       .  A
O1125      V2456   1.907   1_455  S
O1126      C1129   1.264       .  A
V1127      O2448   1.894       .  S
V1127      O2117   1.894   1_556  S
V1127      V1128   2.091       .  T
V1128      O2120   1.907   1_556  S
V1128      O2453   1.907       .  S
C1129      C1163   1.436       .  S
C1130      C1265   1.435       .  S
C1131      C1177   1.435       .  S
C1132      C1291   1.435       .  S
O1133      C1143   1.264       .  A
O1134      C1144   1.263       .  A
O1135      C1145   1.264       .  A
O1135      V1141   1.906       .  S
O1136      C1146   1.264       .  A
O1137      C1146   1.262       .  A
O1138      C1145   1.262       .  A
O1138      V1142   1.896       .  S
O1139      C1144   1.262       .  A
O1140      C1143   1.262       .  A
V1141      V1142   2.091       .  T
C1143      C1195   1.436       .  S
C1144      C1288   1.435       .  S
C1145      C1324   1.435       .  S
C1146      C1162   1.435       .  S
O1147      C1157   1.262       .  A
O1147      V1155   1.893       .  S
O1148      C1158   1.262       .  A
O1148      V2151   1.893   1_455  S
O1149      C1159   1.261       .  A
O1149      V2483   1.894   1_455  S
O1150      C1160   1.262       .  A
O1151      C1160   1.264       .  A
O1152      C1159   1.264       .  A
O1152      V2484   1.905   1_455  S
O1153      C1158   1.263       .  A
O1153      V2152   1.903   1_455  S
O1154      C1157   1.263       .  A
O1154      V1156   1.903       .  S
V1155      O2144   1.893   1_556  S
V1155      O2477   1.894       .  S
V1155      V1156   2.091       .  T
V1156      O2480   1.905       .  S
V1156      O2149   1.903   1_556  S
C1157      C1326   1.432       .  S
C1158      C1219   1.432       .  S
C1159      C1236   1.433       .  S
C1160      C1193   1.434       .  S
C1161      C1162   1.206       .  T
C1163      C1164   1.206       .  T
C1165      C1166   1.206       .  T
C1167      C1168   1.404       .  A
C1167      C1172   1.399       .  A
C1167      H1173   1.083       .  S
C1168      C1169   1.405       .  A
C1169      C1170   1.399       .  A
C1169      H1174   1.082       .  S
C1170      C1171   1.405       .  A
C1170      H1175   1.082       .  S
C1171      C1172   1.404       .  A
C1172      H1176   1.083       .  S
C1177      C1178   1.206       .  T
C1179      C1180   1.205       .  T
C1181      C1182   1.207       .  T
C1183      C1184   1.403       .  A
C1183      C1188   1.397       .  A
C1183      H1189   1.083       .  S
C1184      C1185   1.406       .  A
C1185      C1186   1.399       .  A
C1185      H1190   1.082       .  S
C1186      C1187   1.406       .  A
C1186      H1191   1.082       .  S
C1187      C1188   1.404       .  A
C1188      H1192   1.080       .  S
C1193      C1194   1.205       .  T
C1195      C1196   1.206       .  T
C1197      C1198   1.206       .  T
C1199      C1200   1.400       .  A
C1199      C1204   1.397       .  A
C1199      H1205   1.083       .  S
C1200      C1201   1.406       .  A
C1201      C1202   1.401       .  A
C1201      H1206   1.083       .  S
C1202      C1203   1.405       .  A
C1202      H1207   1.083       .  S
C1203      C1204   1.402       .  A
C1204      H1208   1.076       .  S
C1209      C1210   1.404       .  A
C1209      C1214   1.399       .  A
C1209      H1215   1.083       .  S
C1210      C1211   1.406       .  A
C1211      C1212   1.399       .  A
C1211      H1216   1.082       .  S
C1212      C1213   1.405       .  A
C1212      H1217   1.082       .  S
C1213      C1214   1.404       .  A
C1214      H1218   1.083       .  S
C1219      C1220   1.204       .  T
C1221      C1222   1.206       .  T
C1223      C1224   1.206       .  T
C1225      C1226   1.405       .  A
C1225      C1230   1.402       .  A
C1225      H1231   1.083       .  S
C1226      C1227   1.402       .  A
C1227      C1228   1.396       .  A
C1227      H1232   1.076       .  S
C1228      C1229   1.400       .  A
C1228      H1233   1.084       .  S
C1229      C1230   1.406       .  A
C1230      H1234   1.083       .  S
C1235      C1236   1.204       .  T
C1237      C1238   1.206       .  T
C1239      C1240   1.205       .  T
C1241      C1242   1.402       .  A
C1241      C1246   1.391       .  A
C1241      H1247   1.076       .  S
C1242      C1243   1.408       .  A
C1243      C1244   1.401       .  A
C1243      H1248   1.081       .  S
C1244      C1245   1.408       .  A
C1244      H1249   1.081       .  S
C1245      C1246   1.402       .  A
C1246      H1250   1.075       .  S
C1251      C1252   1.404       .  A
C1251      C1256   1.400       .  A
C1251      H1257   1.083       .  S
C1252      C1253   1.402       .  A
C1253      C1254   1.396       .  A
C1253      H1258   1.077       .  S
C1254      C1255   1.400       .  A
C1254      H1259   1.084       .  S
C1255      C1256   1.405       .  A
C1256      H1260   1.083       .  S
C1261      C1262   1.206       .  T
C1263      C1264   1.205       .  T
C1265      C1266   1.206       .  T
C1267      C1268   1.401       .  A
C1267      C1272   1.397       .  A
C1267      H1273   1.081       .  S
C1268      C1269   1.403       .  A
C1269      C1270   1.401       .  A
C1269      H1274   1.083       .  S
C1270      C1271   1.403       .  A
C1270      H1275   1.083       .  S
C1271      C1272   1.401       .  A
C1272      H1276   1.081       .  S
C1277      C1278   1.403       .  A
C1277      C1282   1.398       .  A
C1277      H1283   1.083       .  S
C1278      C1279   1.405       .  A
C1279      C1280   1.398       .  A
C1279      H1284   1.083       .  S
C1280      C1281   1.405       .  A
C1280      H1285   1.082       .  S
C1281      C1282   1.404       .  A
C1282      H1286   1.083       .  S
C1287      C1288   1.206       .  T
C1289      C1290   1.205       .  T
C1291      C1292   1.206       .  T
C1293      C1294   1.402       .  A
C1293      C1298   1.396       .  A
C1293      H1299   1.077       .  S
C1294      C1295   1.404       .  A
C1295      C1296   1.400       .  A
C1295      H1300   1.083       .  S
C1296      C1297   1.404       .  A
C1296      H1301   1.083       .  S
C1297      C1298   1.400       .  A
C1298      H1302   1.084       .  S
C1303      C1304   1.408       .  A
C1303      C1308   1.401       .  A
C1303      H1309   1.081       .  S
C1304      C1305   1.402       .  A
C1305      C1306   1.391       .  A
C1305      H1310   1.076       .  S
C1306      C1307   1.401       .  A
C1306      H1311   1.074       .  S
C1307      C1308   1.408       .  A
C1308      H1312   1.081       .  S
C1313      C1314   1.402       .  A
C1313      C1318   1.396       .  A
C1313      H1319   1.083       .  S
C1314      C1315   1.405       .  A
C1315      C1316   1.399       .  A
C1315      H1320   1.082       .  S
C1316      C1317   1.406       .  A
C1316      H1321   1.082       .  S
C1317      C1318   1.403       .  A
C1318      H1322   1.080       .  S
C1323      C1324   1.206       .  T
C1325      C1326   1.204       .  T
C1327      C1328   1.207       .  T
C1329      H1330   1.109       .  S
C1329      C1335   1.541       .  S
C1329      C1334   1.547       .  S
C1329      C1333   1.543       .  S
C1331      H1332   1.113       .  S
C1331      C1337   1.531       .  S
C1331      C1336   1.529       .  S
C1331      C1338   1.529       .  S
C1333      C1336   1.368       .  D
C1333      C1626   1.482       .  S
C1334      C1337   1.376       .  D
C1334      C1636   1.494       .  S
C1335      C1338   1.371       .  D
C1335      C1646   1.485       .  S
C1336      C1659   1.446       .  S
C1337      C1655   1.444       .  S
C1338      C1657   1.441       .  S
C1339      H1340   1.113       .  S
C1339      C1345   1.529       .  S
C1339      C1344   1.531       .  S
C1339      C1343   1.528       .  S
C1341      H1342   1.111       .  S
C1341      C1347   1.543       .  S
C1341      C1346   1.546       .  S
C1341      C1348   1.541       .  S
C1343      C1346   1.374       .  D
C1343      C1619   1.444       .  S
C1344      C1347   1.373       .  D
C1344      C1624   1.445       .  S
C1345      C1348   1.367       .  D
C1345      C1622   1.443       .  S
C1346      C1610   1.485       .  S
C1347      C1649   1.487       .  S
C1348      C1600   1.478       .  S
C1349      H1350   1.109       .  S
C1349      C1355   1.544       .  S
C1349      C1354   1.543       .  S
C1349      C1353   1.548       .  S
C1351      H1352   1.113       .  S
C1351      C1357   1.528       .  S
C1351      C1356   1.530       .  S
C1351      C1358   1.529       .  S
C1353      C1356   1.376       .  D
C1353      C1574   1.495       .  S
C1354      C1357   1.372       .  D
C1354      C1613   1.486       .  S
C1355      C1358   1.368       .  D
C1355      C1584   1.484       .  S
C1356      C1594   1.445       .  S
C1357      C1596   1.443       .  S
C1358      C1598   1.445       .  S
C1359      H1360   1.113       .  S
C1359      C1365   1.530       .  S
C1359      C1364   1.528       .  S
C1359      C1363   1.530       .  S
C1361      H1362   1.109       .  S
C1361      C1367   1.541       .  S
C1361      C1366   1.549       .  S
C1361      C1368   1.545       .  S
C1363      C1366   1.376       .  D
C1363      C1572   1.444       .  S
C1364      C1367   1.369       .  D
C1364      C1567   1.442       .  S
C1365      C1368   1.370       .  D
C1365      C1569   1.445       .  S
C1366      C1639   1.495       .  S
C1367      C1587   1.480       .  S
C1368      C1558   1.487       .  S
C1369      H1370   1.113       .  S
C1369      C1375   1.529       .  S
C1369      C1374   1.530       .  S
C1369      C1373   1.530       .  S
C1371      H1372   1.111       .  S
C1371      C1377   1.543       .  S
C1371      C1376   1.545       .  S
C1371      C1378   1.543       .  S
C1373      C1376   1.374       .  D
C1373      C1553   1.446       .  S
C1374      C1377   1.370       .  D
C1374      C1556   1.444       .  S
C1375      C1378   1.370       .  D
C1375      C1552   1.441       .  S
C1376      C1542   1.488       .  S
C1377      C1561   1.483       .  S
C1378      C1532   1.483       .  S
C1379      H1380   1.113       .  S
C1379      C1385   1.529       .  S
C1379      C1384   1.529       .  S
C1379      C1383   1.531       .  S
C1381      H1382   1.111       .  S
C1381      C1387   1.544       .  S
C1381      C1386   1.543       .  S
C1381      C1388   1.541       .  S
C1383      C1386   1.374       .  D
C1383      C1528   1.445       .  S
C1384      C1387   1.373       .  D
C1384      C1526   1.443       .  S
C1385      C1388   1.368       .  D
C1385      C1529   1.445       .  S
C1386      C1545   1.487       .  S
C1387      C1516   1.487       .  S
C1388      C1629   1.479       .  S
C1389      H1390   1.113       .  S
C1389      C1395   1.531       .  S
C1389      C1394   1.530       .  S
C1389      C1393   1.529       .  S
C1391      H1392   1.109       .  S
C1391      C1397   1.544       .  S
C1391      C1396   1.543       .  S
C1391      C1398   1.549       .  S
C1393      C1396   1.373       .  D
C1393      C1511   1.444       .  S
C1394      C1397   1.369       .  D
C1394      C1510   1.445       .  S
C1395      C1398   1.377       .  D
C1395      C1513   1.447       .  S
C1396      C1500   1.488       .  S
C1397      C1535   1.487       .  S
C1398      C1577   1.495       .  S
C1399      H1400   1.113       .  S
C1399      C1405   1.529       .  S
C1399      C1404   1.533       .  S
C1399      C1403   1.529       .  S
C1401      H1402   1.111       .  S
C1401      C1407   1.543       .  S
C1401      C1406   1.541       .  S
C1401      C1408   1.545       .  S
C1403      C1406   1.367       .  D
C1403      C1498   1.444       .  S
C1404      C1407   1.374       .  D
C1404      C1496   1.446       .  S
C1405      C1408   1.374       .  D
C1405      C1493   1.445       .  S
C1406      C1603   1.477       .  S
C1407      C1519   1.489       .  S
C1408      C1503   1.487       .  S
O1409      C1419   1.264       .  A
O1410      C1420   1.264       .  A
O1410      V2081   1.906   1_545  S
O1411      C1421   1.264       .  A
O1411      V1417   1.908       .  S
O1412      C1422   1.265       .  A
O1413      C1422   1.262       .  A
O1414      C1421   1.261       .  A
O1414      V1418   1.894       .  S
O1415      C1420   1.262       .  A
O1415      V2082   1.895   1_545  S
O1416      C1419   1.262       .  A
V1417      O2074   1.906       .  S
V1417      V1418   2.091       .  T
V1418      O2079   1.895       .  S
C1419      C1555   1.435       .  S
C1420      C1497   1.435       .  S
C1421      C1530   1.435       .  S
C1422      C1514   1.438       .  S
O1423      C1433   1.262       .  A
O1424      C1434   1.262       .  A
O1424      V2095   1.895   1_545  S
O1425      C1435   1.262       .  A
O1425      V1431   1.895       .  S
O1426      C1436   1.262       .  A
O1427      C1436   1.264       .  A
O1428      C1435   1.264       .  A
O1428      V1432   1.908       .  S
O1429      C1434   1.264       .  A
O1429      V2096   1.905   1_545  S
O1430      C1433   1.264       .  A
V1431      O2088   1.895       .  S
V1431      V1432   2.091       .  T
V1432      O2093   1.905       .  S
C1433      C1570   1.436       .  S
C1434      C1621   1.434       .  S
C1435      C1660   1.437       .  S
C1436      C1593   1.435       .  S
O1437      C1447   1.264       .  A
O1437      V1445   1.906       .  S
O1438      C1448   1.264       .  A
O1438      V2441   1.905   1_544  S
O1439      C1449   1.264       .  A
O1439      V1777   1.907   1_554  S
O1440      C1450   1.263       .  A
O1440      V2109   1.905   1_545  S
O1441      C1450   1.262       .  A
O1441      V2110   1.894   1_545  S
O1442      C1449   1.262       .  A
O1442      V1778   1.896   1_554  S
O1443      C1448   1.262       .  A
O1443      V2442   1.894   1_544  S
O1444      C1447   1.262       .  A
O1444      V1446   1.895       .  S
V1445      O2434   1.905       .  S
V1445      O1771   1.907       .  S
V1445      O2104   1.905       .  S
V1445      V1446   2.091       .  T
V1446      O2105   1.894       .  S
V1446      O1774   1.896       .  S
V1446      O2439   1.894       .  S
C1447      C1571   1.434       .  S
C1448      C1512   1.434       .  S
C1449      C1554   1.436       .  S
C1450      C1595   1.434       .  S
O1451      C1461   1.262       .  A
O1451      V1791   1.895   1_554  S
O1452      C1462   1.261       .  A
O1453      C1463   1.261       .  A
O1454      C1464   1.261       .  A
O1454      V1459   1.894       .  S
O1455      C1464   1.264       .  A
O1455      V1460   1.907       .  S
O1456      C1463   1.264       .  A
O1457      C1462   1.264       .  A
O1458      C1461   1.264       .  A
O1458      V1792   1.908   1_554  S
V1459      O1783   1.895       .  S
V1459      V1460   2.091       .  T
V1460      O1790   1.908       .  S
C1461      C1495   1.436       .  S
C1462      C1597   1.435       .  S
C1463      C1509   1.435       .  S
C1464      C1623   1.435       .  S
O1465      C1475   1.264       .  A
O1465      V1805   1.906   1_554  S
O1466      C1476   1.263       .  A
O1466      V2137   1.905   1_545  S
O1467      C1477   1.264       .  A
O1467      V1473   1.906       .  S
O1468      C1478   1.264       .  A
O1468      V2469   1.906   1_544  S
O1469      C1478   1.262       .  A
O1469      V2470   1.896   1_544  S
O1470      C1477   1.262       .  A
O1470      V1474   1.896       .  S
O1471      C1476   1.262       .  A
O1471      V2138   1.897   1_545  S
O1472      C1475   1.262       .  A
O1472      V1806   1.897   1_554  S
V1473      O1797   1.906       .  S
V1473      O2130   1.905       .  S
V1473      O2464   1.906       .  S
V1473      V1474   2.091       .  T
V1474      O2465   1.896       .  S
V1474      O2135   1.897       .  S
V1474      O1804   1.897       .  S
C1475      C1527   1.436       .  S
C1476      C1620   1.435       .  S
C1477      C1656   1.435       .  S
C1478      C1494   1.435       .  S
O1479      C1489   1.262       .  A
O1479      V1487   1.894       .  S
O1480      C1490   1.262       .  A
O1481      C1491   1.261       .  A
O1482      C1492   1.262       .  A
O1482      V1819   1.894   1_554  S
O1483      C1492   1.264       .  A
O1483      V1820   1.905   1_554  S
O1484      C1491   1.264       .  A
O1485      C1490   1.263       .  A
O1486      C1489   1.263       .  A
O1486      V1488   1.903       .  S
V1487      O1814   1.894       .  S
V1487      V1488   2.091       .  T
V1488      O1815   1.905       .  S
C1489      C1658   1.432       .  S
C1490      C1551   1.432       .  S
C1491      C1568   1.433       .  S
C1492      C1525   1.434       .  S
C1493      C1494   1.206       .  T
C1495      C1496   1.206       .  T
C1497      C1498   1.206       .  T
C1499      C1500   1.404       .  A
C1499      C1504   1.399       .  A
C1499      H1505   1.083       .  S
C1500      C1501   1.405       .  A
C1501      C1502   1.399       .  A
C1501      H1506   1.082       .  S
C1502      C1503   1.405       .  A
C1502      H1507   1.082       .  S
C1503      C1504   1.404       .  A
C1504      H1508   1.083       .  S
C1509      C1510   1.206       .  T
C1511      C1512   1.205       .  T
C1513      C1514   1.207       .  T
C1515      C1516   1.403       .  A
C1515      C1520   1.397       .  A
C1515      H1521   1.083       .  S
C1516      C1517   1.406       .  A
C1517      C1518   1.399       .  A
C1517      H1522   1.082       .  S
C1518      C1519   1.406       .  A
C1518      H1523   1.082       .  S
C1519      C1520   1.404       .  A
C1520      H1524   1.080       .  S
C1525      C1526   1.205       .  T
C1527      C1528   1.206       .  T
C1529      C1530   1.206       .  T
C1531      C1532   1.400       .  A
C1531      C1536   1.397       .  A
C1531      H1537   1.083       .  S
C1532      C1533   1.406       .  A
C1533      C1534   1.401       .  A
C1533      H1538   1.083       .  S
C1534      C1535   1.405       .  A
C1534      H1539   1.083       .  S
C1535      C1536   1.402       .  A
C1536      H1540   1.076       .  S
C1541      C1542   1.404       .  A
C1541      C1546   1.399       .  A
C1541      H1547   1.083       .  S
C1542      C1543   1.406       .  A
C1543      C1544   1.399       .  A
C1543      H1548   1.082       .  S
C1544      C1545   1.405       .  A
C1544      H1549   1.082       .  S
C1545      C1546   1.404       .  A
C1546      H1550   1.083       .  S
C1551      C1552   1.204       .  T
C1553      C1554   1.206       .  T
C1555      C1556   1.206       .  T
C1557      C1558   1.405       .  A
C1557      C1562   1.402       .  A
C1557      H1563   1.083       .  S
C1558      C1559   1.402       .  A
C1559      C1560   1.396       .  A
C1559      H1564   1.076       .  S
C1560      C1561   1.400       .  A
C1560      H1565   1.084       .  S
C1561      C1562   1.406       .  A
C1562      H1566   1.083       .  S
C1567      C1568   1.204       .  T
C1569      C1570   1.206       .  T
C1571      C1572   1.205       .  T
C1573      C1574   1.402       .  A
C1573      C1578   1.391       .  A
C1573      H1579   1.076       .  S
C1574      C1575   1.408       .  A
C1575      C1576   1.401       .  A
C1575      H1580   1.081       .  S
C1576      C1577   1.408       .  A
C1576      H1581   1.081       .  S
C1577      C1578   1.402       .  A
C1578      H1582   1.075       .  S
C1583      C1584   1.404       .  A
C1583      C1588   1.400       .  A
C1583      H1589   1.083       .  S
C1584      C1585   1.402       .  A
C1585      C1586   1.396       .  A
C1585      H1590   1.077       .  S
C1586      C1587   1.400       .  A
C1586      H1591   1.084       .  S
C1587      C1588   1.405       .  A
C1588      H1592   1.083       .  S
C1593      C1594   1.206       .  T
C1595      C1596   1.205       .  T
C1597      C1598   1.206       .  T
C1599      C1600   1.401       .  A
C1599      C1604   1.397       .  A
C1599      H1605   1.081       .  S
C1600      C1601   1.403       .  A
C1601      C1602   1.401       .  A
C1601      H1606   1.083       .  S
C1602      C1603   1.403       .  A
C1602      H1607   1.083       .  S
C1603      C1604   1.401       .  A
C1604      H1608   1.081       .  S
C1609      C1610   1.403       .  A
C1609      C1614   1.398       .  A
C1609      H1615   1.083       .  S
C1610      C1611   1.405       .  A
C1611      C1612   1.398       .  A
C1611      H1616   1.083       .  S
C1612      C1613   1.405       .  A
C1612      H1617   1.082       .  S
C1613      C1614   1.404       .  A
C1614      H1618   1.083       .  S
C1619      C1620   1.206       .  T
C1621      C1622   1.205       .  T
C1623      C1624   1.206       .  T
C1625      C1626   1.402       .  A
C1625      C1630   1.396       .  A
C1625      H1631   1.077       .  S
C1626      C1627   1.404       .  A
C1627      C1628   1.400       .  A
C1627      H1632   1.083       .  S
C1628      C1629   1.404       .  A
C1628      H1633   1.083       .  S
C1629      C1630   1.400       .  A
C1630      H1634   1.084       .  S
C1635      C1636   1.408       .  A
C1635      C1640   1.401       .  A
C1635      H1641   1.081       .  S
C1636      C1637   1.402       .  A
C1637      C1638   1.391       .  A
C1637      H1642   1.076       .  S
C1638      C1639   1.401       .  A
C1638      H1643   1.074       .  S
C1639      C1640   1.408       .  A
C1640      H1644   1.081       .  S
C1645      C1646   1.402       .  A
C1645      C1650   1.396       .  A
C1645      H1651   1.083       .  S
C1646      C1647   1.405       .  A
C1647      C1648   1.399       .  A
C1647      H1652   1.082       .  S
C1648      C1649   1.406       .  A
C1648      H1653   1.082       .  S
C1649      C1650   1.403       .  A
C1650      H1654   1.080       .  S
C1655      C1656   1.206       .  T
C1657      C1658   1.204       .  T
C1659      C1660   1.207       .  T
C1661      H1662   1.109       .  S
C1661      C1667   1.541       .  S
C1661      C1666   1.547       .  S
C1661      C1665   1.543       .  S
C1663      H1664   1.113       .  S
C1663      C1669   1.531       .  S
C1663      C1668   1.529       .  S
C1663      C1670   1.529       .  S
C1665      C1668   1.368       .  D
C1665      C1958   1.482       .  S
C1666      C1669   1.376       .  D
C1666      C1968   1.494       .  S
C1667      C1670   1.371       .  D
C1667      C1978   1.485       .  S
C1668      C1991   1.446       .  S
C1669      C1987   1.444       .  S
C1670      C1989   1.441       .  S
C1671      H1672   1.113       .  S
C1671      C1677   1.529       .  S
C1671      C1676   1.531       .  S
C1671      C1675   1.528       .  S
C1673      H1674   1.111       .  S
C1673      C1679   1.543       .  S
C1673      C1678   1.546       .  S
C1673      C1680   1.541       .  S
C1675      C1678   1.374       .  D
C1675      C1951   1.444       .  S
C1676      C1679   1.373       .  D
C1676      C1956   1.445       .  S
C1677      C1680   1.367       .  D
C1677      C1954   1.443       .  S
C1678      C1942   1.485       .  S
C1679      C1981   1.487       .  S
C1680      C1932   1.478       .  S
C1681      H1682   1.109       .  S
C1681      C1687   1.544       .  S
C1681      C1686   1.543       .  S
C1681      C1685   1.548       .  S
C1683      H1684   1.113       .  S
C1683      C1689   1.528       .  S
C1683      C1688   1.530       .  S
C1683      C1690   1.529       .  S
C1685      C1688   1.376       .  D
C1685      C1906   1.495       .  S
C1686      C1689   1.372       .  D
C1686      C1945   1.486       .  S
C1687      C1690   1.368       .  D
C1687      C1916   1.484       .  S
C1688      C1926   1.445       .  S
C1689      C1928   1.443       .  S
C1690      C1930   1.445       .  S
C1691      H1692   1.113       .  S
C1691      C1697   1.530       .  S
C1691      C1696   1.528       .  S
C1691      C1695   1.530       .  S
C1693      H1694   1.109       .  S
C1693      C1699   1.541       .  S
C1693      C1698   1.549       .  S
C1693      C1700   1.545       .  S
C1695      C1698   1.376       .  D
C1695      C1904   1.444       .  S
C1696      C1699   1.369       .  D
C1696      C1899   1.442       .  S
C1697      C1700   1.370       .  D
C1697      C1901   1.445       .  S
C1698      C1971   1.495       .  S
C1699      C1919   1.480       .  S
C1700      C1890   1.487       .  S
C1701      H1702   1.113       .  S
C1701      C1707   1.529       .  S
C1701      C1706   1.530       .  S
C1701      C1705   1.530       .  S
C1703      H1704   1.111       .  S
C1703      C1709   1.543       .  S
C1703      C1708   1.545       .  S
C1703      C1710   1.543       .  S
C1705      C1708   1.374       .  D
C1705      C1885   1.446       .  S
C1706      C1709   1.370       .  D
C1706      C1888   1.444       .  S
C1707      C1710   1.370       .  D
C1707      C1884   1.441       .  S
C1708      C1874   1.488       .  S
C1709      C1893   1.483       .  S
C1710      C1864   1.483       .  S
C1711      H1712   1.113       .  S
C1711      C1717   1.529       .  S
C1711      C1716   1.529       .  S
C1711      C1715   1.531       .  S
C1713      H1714   1.111       .  S
C1713      C1719   1.544       .  S
C1713      C1718   1.543       .  S
C1713      C1720   1.541       .  S
C1715      C1718   1.374       .  D
C1715      C1860   1.445       .  S
C1716      C1719   1.373       .  D
C1716      C1858   1.443       .  S
C1717      C1720   1.368       .  D
C1717      C1861   1.445       .  S
C1718      C1877   1.487       .  S
C1719      C1848   1.487       .  S
C1720      C1961   1.479       .  S
C1721      H1722   1.113       .  S
C1721      C1727   1.531       .  S
C1721      C1726   1.530       .  S
C1721      C1725   1.529       .  S
C1723      H1724   1.109       .  S
C1723      C1729   1.544       .  S
C1723      C1728   1.543       .  S
C1723      C1730   1.549       .  S
C1725      C1728   1.373       .  D
C1725      C1843   1.444       .  S
C1726      C1729   1.369       .  D
C1726      C1842   1.445       .  S
C1727      C1730   1.377       .  D
C1727      C1845   1.447       .  S
C1728      C1832   1.488       .  S
C1729      C1867   1.487       .  S
C1730      C1909   1.495       .  S
C1731      H1732   1.113       .  S
C1731      C1737   1.529       .  S
C1731      C1736   1.533       .  S
C1731      C1735   1.529       .  S
C1733      H1734   1.111       .  S
C1733      C1739   1.543       .  S
C1733      C1738   1.541       .  S
C1733      C1740   1.545       .  S
C1735      C1738   1.367       .  D
C1735      C1830   1.444       .  S
C1736      C1739   1.374       .  D
C1736      C1828   1.446       .  S
C1737      C1740   1.374       .  D
C1737      C1825   1.445       .  S
C1738      C1935   1.477       .  S
C1739      C1851   1.489       .  S
C1740      C1835   1.487       .  S
O1741      C1751   1.264       .  A
O1742      C1752   1.264       .  A
O1742      V2413   1.906   1_545  S
O1743      C1753   1.264       .  A
O1743      V1749   1.908       .  S
O1744      C1754   1.265       .  A
O1745      C1754   1.262       .  A
O1746      C1753   1.261       .  A
O1746      V1750   1.894       .  S
O1747      C1752   1.262       .  A
O1747      V2414   1.895   1_545  S
O1748      C1751   1.262       .  A
V1749      O2406   1.906       .  S
V1749      V1750   2.091       .  T
V1750      O2411   1.895       .  S
C1751      C1887   1.435       .  S
C1752      C1829   1.435       .  S
C1753      C1862   1.435       .  S
C1754      C1846   1.438       .  S
O1755      C1765   1.262       .  A
O1756      C1766   1.262       .  A
O1756      V2427   1.895   1_545  S
O1757      C1767   1.262       .  A
O1757      V1763   1.895       .  S
O1758      C1768   1.262       .  A
O1759      C1768   1.264       .  A
O1760      C1767   1.264       .  A
O1760      V1764   1.908       .  S
O1761      C1766   1.264       .  A
O1761      V2428   1.905   1_545  S
O1762      C1765   1.264       .  A
V1763      O2420   1.895       .  S
V1763      V1764   2.091       .  T
V1764      O2425   1.905       .  S
C1765      C1902   1.436       .  S
C1766      C1953   1.434       .  S
C1767      C1992   1.437       .  S
C1768      C1925   1.435       .  S
O1769      C1779   1.264       .  A
O1769      V1777   1.906       .  S
O1770      C1780   1.264       .  A
O1770      V2109   1.905   1_545  S
O1771      C1781   1.264       .  A
O1772      C1782   1.263       .  A
O1772      V2441   1.905   1_545  S
O1773      C1782   1.262       .  A
O1773      V2442   1.894   1_545  S
O1774      C1781   1.262       .  A
O1775      C1780   1.262       .  A
O1775      V2110   1.894   1_545  S
O1776      C1779   1.262       .  A
O1776      V1778   1.895       .  S
V1777      O2102   1.905   1_556  S
V1777      O2436   1.905       .  S
V1777      V1778   2.091       .  T
V1778      O2437   1.894       .  S
V1778      O2107   1.894   1_556  S
C1779      C1903   1.434       .  S
C1780      C1844   1.434       .  S
C1781      C1886   1.436       .  S
C1782      C1927   1.434       .  S
O1783      C1793   1.262       .  A
O1784      C1794   1.261       .  A
O1785      C1795   1.261       .  A
O1786      C1796   1.261       .  A
O1786      V1791   1.894       .  S
O1787      C1796   1.264       .  A
O1787      V1792   1.907       .  S
O1788      C1795   1.264       .  A
O1789      C1794   1.264       .  A
O1790      C1793   1.264       .  A
V1791      V1792   2.091       .  T
C1793      C1827   1.436       .  S
C1794      C1929   1.435       .  S
C1795      C1841   1.435       .  S
C1796      C1955   1.435       .  S
O1797      C1807   1.264       .  A
O1798      C1808   1.263       .  A
O1798      V2469   1.905   1_545  S
O1799      C1809   1.264       .  A
O1799      V1805   1.906       .  S
O1800      C1810   1.264       .  A
O1800      V2137   1.906   1_545  S
O1801      C1810   1.262       .  A
O1801      V2138   1.896   1_545  S
O1802      C1809   1.262       .  A
O1802      V1806   1.896       .  S
O1803      C1808   1.262       .  A
O1803      V2470   1.897   1_545  S
O1804      C1807   1.262       .  A
V1805      O2462   1.905       .  S
V1805      O2132   1.906   1_556  S
V1805      V1806   2.091       .  T
V1806      O2133   1.896   1_556  S
V1806      O2467   1.897       .  S
C1807      C1859   1.436       .  S
C1808      C1952   1.435       .  S
C1809      C1988   1.435       .  S
C1810      C1826   1.435       .  S
O1811      C1821   1.262       .  A
O1811      V1819   1.894       .  S
O1812      C1822   1.262       .  A
O1813      C1823   1.261       .  A
O1814      C1824   1.262       .  A
O1815      C1824   1.264       .  A
O1816      C1823   1.264       .  A
O1817      C1822   1.263       .  A
O1818      C1821   1.263       .  A
O1818      V1820   1.903       .  S
V1819      V1820   2.091       .  T
C1821      C1990   1.432       .  S
C1822      C1883   1.432       .  S
C1823      C1900   1.433       .  S
C1824      C1857   1.434       .  S
C1825      C1826   1.206       .  T
C1827      C1828   1.206       .  T
C1829      C1830   1.206       .  T
C1831      C1832   1.404       .  A
C1831      C1836   1.399       .  A
C1831      H1837   1.083       .  S
C1832      C1833   1.405       .  A
C1833      C1834   1.399       .  A
C1833      H1838   1.082       .  S
C1834      C1835   1.405       .  A
C1834      H1839   1.082       .  S
C1835      C1836   1.404       .  A
C1836      H1840   1.083       .  S
C1841      C1842   1.206       .  T
C1843      C1844   1.205       .  T
C1845      C1846   1.207       .  T
C1847      C1848   1.403       .  A
C1847      C1852   1.397       .  A
C1847      H1853   1.083       .  S
C1848      C1849   1.406       .  A
C1849      C1850   1.399       .  A
C1849      H1854   1.082       .  S
C1850      C1851   1.406       .  A
C1850      H1855   1.082       .  S
C1851      C1852   1.404       .  A
C1852      H1856   1.080       .  S
C1857      C1858   1.205       .  T
C1859      C1860   1.206       .  T
C1861      C1862   1.206       .  T
C1863      C1864   1.400       .  A
C1863      C1868   1.397       .  A
C1863      H1869   1.083       .  S
C1864      C1865   1.406       .  A
C1865      C1866   1.401       .  A
C1865      H1870   1.083       .  S
C1866      C1867   1.405       .  A
C1866      H1871   1.083       .  S
C1867      C1868   1.402       .  A
C1868      H1872   1.076       .  S
C1873      C1874   1.404       .  A
C1873      C1878   1.399       .  A
C1873      H1879   1.083       .  S
C1874      C1875   1.406       .  A
C1875      C1876   1.399       .  A
C1875      H1880   1.082       .  S
C1876      C1877   1.405       .  A
C1876      H1881   1.082       .  S
C1877      C1878   1.404       .  A
C1878      H1882   1.083       .  S
C1883      C1884   1.204       .  T
C1885      C1886   1.206       .  T
C1887      C1888   1.206       .  T
C1889      C1890   1.405       .  A
C1889      C1894   1.402       .  A
C1889      H1895   1.083       .  S
C1890      C1891   1.402       .  A
C1891      C1892   1.396       .  A
C1891      H1896   1.076       .  S
C1892      C1893   1.400       .  A
C1892      H1897   1.084       .  S
C1893      C1894   1.406       .  A
C1894      H1898   1.083       .  S
C1899      C1900   1.204       .  T
C1901      C1902   1.206       .  T
C1903      C1904   1.205       .  T
C1905      C1906   1.402       .  A
C1905      C1910   1.391       .  A
C1905      H1911   1.076       .  S
C1906      C1907   1.408       .  A
C1907      C1908   1.401       .  A
C1907      H1912   1.081       .  S
C1908      C1909   1.408       .  A
C1908      H1913   1.081       .  S
C1909      C1910   1.402       .  A
C1910      H1914   1.075       .  S
C1915      C1916   1.404       .  A
C1915      C1920   1.400       .  A
C1915      H1921   1.083       .  S
C1916      C1917   1.402       .  A
C1917      C1918   1.396       .  A
C1917      H1922   1.077       .  S
C1918      C1919   1.400       .  A
C1918      H1923   1.084       .  S
C1919      C1920   1.405       .  A
C1920      H1924   1.083       .  S
C1925      C1926   1.206       .  T
C1927      C1928   1.205       .  T
C1929      C1930   1.206       .  T
C1931      C1932   1.401       .  A
C1931      C1936   1.397       .  A
C1931      H1937   1.081       .  S
C1932      C1933   1.403       .  A
C1933      C1934   1.401       .  A
C1933      H1938   1.083       .  S
C1934      C1935   1.403       .  A
C1934      H1939   1.083       .  S
C1935      C1936   1.401       .  A
C1936      H1940   1.081       .  S
C1941      C1942   1.403       .  A
C1941      C1946   1.398       .  A
C1941      H1947   1.083       .  S
C1942      C1943   1.405       .  A
C1943      C1944   1.398       .  A
C1943      H1948   1.083       .  S
C1944      C1945   1.405       .  A
C1944      H1949   1.082       .  S
C1945      C1946   1.404       .  A
C1946      H1950   1.083       .  S
C1951      C1952   1.206       .  T
C1953      C1954   1.205       .  T
C1955      C1956   1.206       .  T
C1957      C1958   1.402       .  A
C1957      C1962   1.396       .  A
C1957      H1963   1.077       .  S
C1958      C1959   1.404       .  A
C1959      C1960   1.400       .  A
C1959      H1964   1.083       .  S
C1960      C1961   1.404       .  A
C1960      H1965   1.083       .  S
C1961      C1962   1.400       .  A
C1962      H1966   1.084       .  S
C1967      C1968   1.408       .  A
C1967      C1972   1.401       .  A
C1967      H1973   1.081       .  S
C1968      C1969   1.402       .  A
C1969      C1970   1.391       .  A
C1969      H1974   1.076       .  S
C1970      C1971   1.401       .  A
C1970      H1975   1.074       .  S
C1971      C1972   1.408       .  A
C1972      H1976   1.081       .  S
C1977      C1978   1.402       .  A
C1977      C1982   1.396       .  A
C1977      H1983   1.083       .  S
C1978      C1979   1.405       .  A
C1979      C1980   1.399       .  A
C1979      H1984   1.082       .  S
C1980      C1981   1.406       .  A
C1980      H1985   1.082       .  S
C1981      C1982   1.403       .  A
C1982      H1986   1.080       .  S
C1987      C1988   1.206       .  T
C1989      C1990   1.204       .  T
C1991      C1992   1.207       .  T
C1993      H1994   1.109       .  S
C1993      C1999   1.541       .  S
C1993      C1998   1.547       .  S
C1993      C1997   1.543       .  S
C1995      H1996   1.113       .  S
C1995      C2001   1.531       .  S
C1995      C2000   1.529       .  S
C1995      C2002   1.529       .  S
C1997      C2000   1.368       .  D
C1997      C2290   1.482       .  S
C1998      C2001   1.376       .  D
C1998      C2300   1.494       .  S
C1999      C2002   1.371       .  D
C1999      C2310   1.485       .  S
C2000      C2323   1.446       .  S
C2001      C2319   1.444       .  S
C2002      C2321   1.441       .  S
C2003      H2004   1.113       .  S
C2003      C2009   1.529       .  S
C2003      C2008   1.531       .  S
C2003      C2007   1.528       .  S
C2005      H2006   1.111       .  S
C2005      C2011   1.543       .  S
C2005      C2010   1.546       .  S
C2005      C2012   1.541       .  S
C2007      C2010   1.374       .  D
C2007      C2283   1.444       .  S
C2008      C2011   1.373       .  D
C2008      C2288   1.445       .  S
C2009      C2012   1.367       .  D
C2009      C2286   1.443       .  S
C2010      C2274   1.485       .  S
C2011      C2313   1.487       .  S
C2012      C2264   1.478       .  S
C2013      H2014   1.109       .  S
C2013      C2019   1.544       .  S
C2013      C2018   1.543       .  S
C2013      C2017   1.548       .  S
C2015      H2016   1.113       .  S
C2015      C2021   1.528       .  S
C2015      C2020   1.530       .  S
C2015      C2022   1.529       .  S
C2017      C2020   1.376       .  D
C2017      C2238   1.495       .  S
C2018      C2021   1.372       .  D
C2018      C2277   1.486       .  S
C2019      C2022   1.368       .  D
C2019      C2248   1.484       .  S
C2020      C2258   1.445       .  S
C2021      C2260   1.443       .  S
C2022      C2262   1.445       .  S
C2023      H2024   1.113       .  S
C2023      C2029   1.530       .  S
C2023      C2028   1.528       .  S
C2023      C2027   1.530       .  S
C2025      H2026   1.109       .  S
C2025      C2031   1.541       .  S
C2025      C2030   1.549       .  S
C2025      C2032   1.545       .  S
C2027      C2030   1.376       .  D
C2027      C2236   1.444       .  S
C2028      C2031   1.369       .  D
C2028      C2231   1.442       .  S
C2029      C2032   1.370       .  D
C2029      C2233   1.445       .  S
C2030      C2303   1.495       .  S
C2031      C2251   1.480       .  S
C2032      C2222   1.487       .  S
C2033      H2034   1.113       .  S
C2033      C2039   1.529       .  S
C2033      C2038   1.530       .  S
C2033      C2037   1.530       .  S
C2035      H2036   1.111       .  S
C2035      C2041   1.543       .  S
C2035      C2040   1.545       .  S
C2035      C2042   1.543       .  S
C2037      C2040   1.374       .  D
C2037      C2217   1.446       .  S
C2038      C2041   1.370       .  D
C2038      C2220   1.444       .  S
C2039      C2042   1.370       .  D
C2039      C2216   1.441       .  S
C2040      C2206   1.488       .  S
C2041      C2225   1.483       .  S
C2042      C2196   1.483       .  S
C2043      H2044   1.113       .  S
C2043      C2049   1.529       .  S
C2043      C2048   1.529       .  S
C2043      C2047   1.531       .  S
C2045      H2046   1.111       .  S
C2045      C2051   1.544       .  S
C2045      C2050   1.543       .  S
C2045      C2052   1.541       .  S
C2047      C2050   1.374       .  D
C2047      C2192   1.445       .  S
C2048      C2051   1.373       .  D
C2048      C2190   1.443       .  S
C2049      C2052   1.368       .  D
C2049      C2193   1.445       .  S
C2050      C2209   1.487       .  S
C2051      C2180   1.487       .  S
C2052      C2293   1.479       .  S
C2053      H2054   1.113       .  S
C2053      C2059   1.531       .  S
C2053      C2058   1.530       .  S
C2053      C2057   1.529       .  S
C2055      H2056   1.109       .  S
C2055      C2061   1.544       .  S
C2055      C2060   1.543       .  S
C2055      C2062   1.549       .  S
C2057      C2060   1.373       .  D
C2057      C2175   1.444       .  S
C2058      C2061   1.369       .  D
C2058      C2174   1.445       .  S
C2059      C2062   1.377       .  D
C2059      C2177   1.447       .  S
C2060      C2164   1.488       .  S
C2061      C2199   1.487       .  S
C2062      C2241   1.495       .  S
C2063      H2064   1.113       .  S
C2063      C2069   1.529       .  S
C2063      C2068   1.533       .  S
C2063      C2067   1.529       .  S
C2065      H2066   1.111       .  S
C2065      C2071   1.543       .  S
C2065      C2070   1.541       .  S
C2065      C2072   1.545       .  S
C2067      C2070   1.367       .  D
C2067      C2162   1.444       .  S
C2068      C2071   1.374       .  D
C2068      C2160   1.446       .  S
C2069      C2072   1.374       .  D
C2069      C2157   1.445       .  S
C2070      C2267   1.477       .  S
C2071      C2183   1.489       .  S
C2072      C2167   1.487       .  S
O2073      C2083   1.264       .  A
O2074      C2084   1.264       .  A
O2075      C2085   1.264       .  A
O2075      V2081   1.908       .  S
O2076      C2086   1.265       .  A
O2077      C2086   1.262       .  A
O2078      C2085   1.261       .  A
O2078      V2082   1.894       .  S
O2079      C2084   1.262       .  A
O2080      C2083   1.262       .  A
V2081      V2082   2.091       .  T
C2083      C2219   1.435       .  S
C2084      C2161   1.435       .  S
C2085      C2194   1.435       .  S
C2086      C2178   1.438       .  S
O2087      C2097   1.262       .  A
O2088      C2098   1.262       .  A
O2089      C2099   1.262       .  A
O2089      V2095   1.895       .  S
O2090      C2100   1.262       .  A
O2091      C2100   1.264       .  A
O2092      C2099   1.264       .  A
O2092      V2096   1.908       .  S
O2093      C2098   1.264       .  A
O2094      C2097   1.264       .  A
V2095      V2096   2.091       .  T
C2097      C2234   1.436       .  S
C2098      C2285   1.434       .  S
C2099      C2324   1.436       .  S
C2100      C2257   1.435       .  S
O2101      C2111   1.264       .  A
O2101      V2109   1.906       .  S
O2102      C2112   1.264       .  A
O2103      C2113   1.264       .  A
O2103      V2441   1.907   1_554  S
O2104      C2114   1.263       .  A
O2105      C2114   1.262       .  A
O2106      C2113   1.262       .  A
O2106      V2442   1.896   1_554  S
O2107      C2112   1.262       .  A
O2108      C2111   1.262       .  A
O2108      V2110   1.895       .  S
V2109      O2435   1.907       .  S
V2109      V2110   2.091       .  T
V2110      O2438   1.896       .  S
C2111      C2235   1.434       .  S
C2112      C2176   1.434       .  S
C2113      C2218   1.436       .  S
C2114      C2259   1.434       .  S
O2115      C2125   1.262       .  A
O2115      V2455   1.895   1_554  S
O2116      C2126   1.261       .  A
O2117      C2127   1.261       .  A
O2118      C2128   1.261       .  A
O2118      V2123   1.894       .  S
O2119      C2128   1.264       .  A
O2119      V2124   1.907       .  S
O2120      C2127   1.264       .  A
O2121      C2126   1.264       .  A
O2122      C2125   1.264       .  A
O2122      V2456   1.908   1_554  S
V2123      O2447   1.895       .  S
V2123      V2124   2.091       .  T
V2124      O2454   1.908       .  S
C2125      C2159   1.436       .  S
C2126      C2261   1.435       .  S
C2127      C2173   1.435       .  S
C2128      C2287   1.435       .  S
O2129      C2139   1.264       .  A
O2129      V2469   1.906   1_554  S
O2130      C2140   1.263       .  A
O2131      C2141   1.264       .  A
O2131      V2137   1.906       .  S
O2132      C2142   1.264       .  A
O2133      C2142   1.262       .  A
O2134      C2141   1.262       .  A
O2134      V2138   1.896       .  S
O2135      C2140   1.262       .  A
O2136      C2139   1.262       .  A
O2136      V2470   1.897   1_554  S
V2137      O2461   1.906       .  S
V2137      V2138   2.091       .  T
V2138      O2468   1.897       .  S
C2139      C2191   1.436       .  S
C2140      C2284   1.435       .  S
C2141      C2320   1.435       .  S
C2142      C2158   1.435       .  S
O2143      C2153   1.262       .  A
O2143      V2151   1.893       .  S
O2144      C2154   1.262       .  A
O2145      C2155   1.261       .  A
O2146      C2156   1.262       .  A
O2146      V2483   1.894   1_554  S
O2147      C2156   1.264       .  A
O2147      V2484   1.905   1_554  S
O2148      C2155   1.264       .  A
O2149      C2154   1.263       .  A
O2150      C2153   1.263       .  A
O2150      V2152   1.903       .  S
V2151      O2478   1.894       .  S
V2151      V2152   2.091       .  T
V2152      O2479   1.905       .  S
C2153      C2322   1.432       .  S
C2154      C2215   1.432       .  S
C2155      C2232   1.433       .  S
C2156      C2189   1.434       .  S
C2157      C2158   1.206       .  T
C2159      C2160   1.206       .  T
C2161      C2162   1.206       .  T
C2163      C2164   1.404       .  A
C2163      C2168   1.399       .  A
C2163      H2169   1.083       .  S
C2164      C2165   1.405       .  A
C2165      C2166   1.399       .  A
C2165      H2170   1.082       .  S
C2166      C2167   1.405       .  A
C2166      H2171   1.082       .  S
C2167      C2168   1.404       .  A
C2168      H2172   1.083       .  S
C2173      C2174   1.206       .  T
C2175      C2176   1.205       .  T
C2177      C2178   1.207       .  T
C2179      C2180   1.403       .  A
C2179      C2184   1.397       .  A
C2179      H2185   1.083       .  S
C2180      C2181   1.406       .  A
C2181      C2182   1.399       .  A
C2181      H2186   1.082       .  S
C2182      C2183   1.406       .  A
C2182      H2187   1.082       .  S
C2183      C2184   1.404       .  A
C2184      H2188   1.080       .  S
C2189      C2190   1.205       .  T
C2191      C2192   1.206       .  T
C2193      C2194   1.206       .  T
C2195      C2196   1.400       .  A
C2195      C2200   1.397       .  A
C2195      H2201   1.083       .  S
C2196      C2197   1.406       .  A
C2197      C2198   1.401       .  A
C2197      H2202   1.083       .  S
C2198      C2199   1.405       .  A
C2198      H2203   1.083       .  S
C2199      C2200   1.402       .  A
C2200      H2204   1.076       .  S
C2205      C2206   1.404       .  A
C2205      C2210   1.399       .  A
C2205      H2211   1.083       .  S
C2206      C2207   1.406       .  A
C2207      C2208   1.399       .  A
C2207      H2212   1.082       .  S
C2208      C2209   1.405       .  A
C2208      H2213   1.082       .  S
C2209      C2210   1.404       .  A
C2210      H2214   1.083       .  S
C2215      C2216   1.204       .  T
C2217      C2218   1.206       .  T
C2219      C2220   1.206       .  T
C2221      C2222   1.405       .  A
C2221      C2226   1.402       .  A
C2221      H2227   1.083       .  S
C2222      C2223   1.402       .  A
C2223      C2224   1.396       .  A
C2223      H2228   1.076       .  S
C2224      C2225   1.400       .  A
C2224      H2229   1.084       .  S
C2225      C2226   1.406       .  A
C2226      H2230   1.083       .  S
C2231      C2232   1.204       .  T
C2233      C2234   1.206       .  T
C2235      C2236   1.205       .  T
C2237      C2238   1.402       .  A
C2237      C2242   1.391       .  A
C2237      H2243   1.076       .  S
C2238      C2239   1.408       .  A
C2239      C2240   1.401       .  A
C2239      H2244   1.081       .  S
C2240      C2241   1.408       .  A
C2240      H2245   1.081       .  S
C2241      C2242   1.402       .  A
C2242      H2246   1.075       .  S
C2247      C2248   1.404       .  A
C2247      C2252   1.400       .  A
C2247      H2253   1.083       .  S
C2248      C2249   1.402       .  A
C2249      C2250   1.396       .  A
C2249      H2254   1.077       .  S
C2250      C2251   1.400       .  A
C2250      H2255   1.084       .  S
C2251      C2252   1.405       .  A
C2252      H2256   1.083       .  S
C2257      C2258   1.206       .  T
C2259      C2260   1.205       .  T
C2261      C2262   1.206       .  T
C2263      C2264   1.401       .  A
C2263      C2268   1.397       .  A
C2263      H2269   1.081       .  S
C2264      C2265   1.403       .  A
C2265      C2266   1.401       .  A
C2265      H2270   1.083       .  S
C2266      C2267   1.403       .  A
C2266      H2271   1.083       .  S
C2267      C2268   1.401       .  A
C2268      H2272   1.081       .  S
C2273      C2274   1.403       .  A
C2273      C2278   1.398       .  A
C2273      H2279   1.083       .  S
C2274      C2275   1.405       .  A
C2275      C2276   1.398       .  A
C2275      H2280   1.083       .  S
C2276      C2277   1.405       .  A
C2276      H2281   1.082       .  S
C2277      C2278   1.404       .  A
C2278      H2282   1.083       .  S
C2283      C2284   1.206       .  T
C2285      C2286   1.205       .  T
C2287      C2288   1.206       .  T
C2289      C2290   1.402       .  A
C2289      C2294   1.396       .  A
C2289      H2295   1.077       .  S
C2290      C2291   1.404       .  A
C2291      C2292   1.400       .  A
C2291      H2296   1.083       .  S
C2292      C2293   1.404       .  A
C2292      H2297   1.083       .  S
C2293      C2294   1.400       .  A
C2294      H2298   1.084       .  S
C2299      C2300   1.408       .  A
C2299      C2304   1.401       .  A
C2299      H2305   1.081       .  S
C2300      C2301   1.402       .  A
C2301      C2302   1.391       .  A
C2301      H2306   1.076       .  S
C2302      C2303   1.401       .  A
C2302      H2307   1.074       .  S
C2303      C2304   1.408       .  A
C2304      H2308   1.081       .  S
C2309      C2310   1.402       .  A
C2309      C2314   1.396       .  A
C2309      H2315   1.083       .  S
C2310      C2311   1.405       .  A
C2311      C2312   1.399       .  A
C2311      H2316   1.082       .  S
C2312      C2313   1.406       .  A
C2312      H2317   1.082       .  S
C2313      C2314   1.403       .  A
C2314      H2318   1.080       .  S
C2319      C2320   1.206       .  T
C2321      C2322   1.204       .  T
C2323      C2324   1.206       .  T
C2325      H2326   1.109       .  S
C2325      C2331   1.541       .  S
C2325      C2330   1.547       .  S
C2325      C2329   1.543       .  S
C2327      H2328   1.113       .  S
C2327      C2333   1.531       .  S
C2327      C2332   1.529       .  S
C2327      C2334   1.529       .  S
C2329      C2332   1.368       .  D
C2329      C2622   1.482       .  S
C2330      C2333   1.376       .  D
C2330      C2632   1.494       .  S
C2331      C2334   1.371       .  D
C2331      C2642   1.485       .  S
C2332      C2655   1.446       .  S
C2333      C2651   1.444       .  S
C2334      C2653   1.441       .  S
C2335      H2336   1.113       .  S
C2335      C2341   1.529       .  S
C2335      C2340   1.531       .  S
C2335      C2339   1.528       .  S
C2337      H2338   1.111       .  S
C2337      C2343   1.543       .  S
C2337      C2342   1.546       .  S
C2337      C2344   1.541       .  S
C2339      C2342   1.374       .  D
C2339      C2615   1.444       .  S
C2340      C2343   1.373       .  D
C2340      C2620   1.445       .  S
C2341      C2344   1.367       .  D
C2341      C2618   1.443       .  S
C2342      C2606   1.485       .  S
C2343      C2645   1.487       .  S
C2344      C2596   1.478       .  S
C2345      H2346   1.109       .  S
C2345      C2351   1.544       .  S
C2345      C2350   1.543       .  S
C2345      C2349   1.548       .  S
C2347      H2348   1.113       .  S
C2347      C2353   1.528       .  S
C2347      C2352   1.530       .  S
C2347      C2354   1.529       .  S
C2349      C2352   1.376       .  D
C2349      C2570   1.495       .  S
C2350      C2353   1.372       .  D
C2350      C2609   1.486       .  S
C2351      C2354   1.368       .  D
C2351      C2580   1.484       .  S
C2352      C2590   1.445       .  S
C2353      C2592   1.443       .  S
C2354      C2594   1.445       .  S
C2355      H2356   1.113       .  S
C2355      C2361   1.530       .  S
C2355      C2360   1.528       .  S
C2355      C2359   1.530       .  S
C2357      H2358   1.109       .  S
C2357      C2363   1.541       .  S
C2357      C2362   1.549       .  S
C2357      C2364   1.545       .  S
C2359      C2362   1.376       .  D
C2359      C2568   1.444       .  S
C2360      C2363   1.369       .  D
C2360      C2563   1.442       .  S
C2361      C2364   1.370       .  D
C2361      C2565   1.445       .  S
C2362      C2635   1.495       .  S
C2363      C2583   1.480       .  S
C2364      C2554   1.487       .  S
C2365      H2366   1.113       .  S
C2365      C2371   1.529       .  S
C2365      C2370   1.530       .  S
C2365      C2369   1.530       .  S
C2367      H2368   1.111       .  S
C2367      C2373   1.543       .  S
C2367      C2372   1.545       .  S
C2367      C2374   1.543       .  S
C2369      C2372   1.374       .  D
C2369      C2549   1.446       .  S
C2370      C2373   1.370       .  D
C2370      C2552   1.444       .  S
C2371      C2374   1.370       .  D
C2371      C2548   1.441       .  S
C2372      C2538   1.488       .  S
C2373      C2557   1.483       .  S
C2374      C2528   1.483       .  S
C2375      H2376   1.113       .  S
C2375      C2381   1.529       .  S
C2375      C2380   1.529       .  S
C2375      C2379   1.531       .  S
C2377      H2378   1.111       .  S
C2377      C2383   1.544       .  S
C2377      C2382   1.543       .  S
C2377      C2384   1.541       .  S
C2379      C2382   1.374       .  D
C2379      C2524   1.445       .  S
C2380      C2383   1.373       .  D
C2380      C2522   1.443       .  S
C2381      C2384   1.368       .  D
C2381      C2525   1.445       .  S
C2382      C2541   1.487       .  S
C2383      C2512   1.487       .  S
C2384      C2625   1.479       .  S
C2385      H2386   1.113       .  S
C2385      C2391   1.531       .  S
C2385      C2390   1.530       .  S
C2385      C2389   1.529       .  S
C2387      H2388   1.109       .  S
C2387      C2393   1.544       .  S
C2387      C2392   1.543       .  S
C2387      C2394   1.549       .  S
C2389      C2392   1.373       .  D
C2389      C2507   1.444       .  S
C2390      C2393   1.369       .  D
C2390      C2506   1.445       .  S
C2391      C2394   1.377       .  D
C2391      C2509   1.447       .  S
C2392      C2496   1.488       .  S
C2393      C2531   1.487       .  S
C2394      C2573   1.495       .  S
C2395      H2396   1.113       .  S
C2395      C2401   1.529       .  S
C2395      C2400   1.533       .  S
C2395      C2399   1.529       .  S
C2397      H2398   1.111       .  S
C2397      C2403   1.543       .  S
C2397      C2402   1.541       .  S
C2397      C2404   1.545       .  S
C2399      C2402   1.367       .  D
C2399      C2494   1.444       .  S
C2400      C2403   1.374       .  D
C2400      C2492   1.446       .  S
C2401      C2404   1.374       .  D
C2401      C2489   1.445       .  S
C2402      C2599   1.477       .  S
C2403      C2515   1.489       .  S
C2404      C2499   1.487       .  S
O2405      C2415   1.264       .  A
O2406      C2416   1.264       .  A
O2407      C2417   1.264       .  A
O2407      V2413   1.908       .  S
O2408      C2418   1.265       .  A
O2409      C2418   1.262       .  A
O2410      C2417   1.261       .  A
O2410      V2414   1.894       .  S
O2411      C2416   1.262       .  A
O2412      C2415   1.262       .  A
V2413      V2414   2.091       .  T
C2415      C2551   1.435       .  S
C2416      C2493   1.435       .  S
C2417      C2526   1.435       .  S
C2418      C2510   1.438       .  S
O2419      C2429   1.262       .  A
O2420      C2430   1.262       .  A
O2421      C2431   1.262       .  A
O2421      V2427   1.895       .  S
O2422      C2432   1.262       .  A
O2423      C2432   1.264       .  A
O2424      C2431   1.264       .  A
O2424      V2428   1.908       .  S
O2425      C2430   1.264       .  A
O2426      C2429   1.264       .  A
V2427      V2428   2.091       .  T
C2429      C2566   1.436       .  S
C2430      C2617   1.434       .  S
C2431      C2656   1.437       .  S
C2432      C2589   1.435       .  S
O2433      C2443   1.264       .  A
O2433      V2441   1.906       .  S
O2434      C2444   1.264       .  A
O2435      C2445   1.264       .  A
O2436      C2446   1.263       .  A
O2437      C2446   1.262       .  A
O2438      C2445   1.262       .  A
O2439      C2444   1.262       .  A
O2440      C2443   1.262       .  A
O2440      V2442   1.895       .  S
V2441      V2442   2.091       .  T
C2443      C2567   1.434       .  S
C2444      C2508   1.434       .  S
C2445      C2550   1.436       .  S
C2446      C2591   1.434       .  S
O2447      C2457   1.262       .  A
O2448      C2458   1.261       .  A
O2449      C2459   1.261       .  A
O2450      C2460   1.261       .  A
O2450      V2455   1.894       .  S
O2451      C2460   1.264       .  A
O2451      V2456   1.907       .  S
O2452      C2459   1.264       .  A
O2453      C2458   1.264       .  A
O2454      C2457   1.264       .  A
V2455      V2456   2.091       .  T
C2457      C2491   1.436       .  S
C2458      C2593   1.435       .  S
C2459      C2505   1.435       .  S
C2460      C2619   1.435       .  S
O2461      C2471   1.264       .  A
O2462      C2472   1.263       .  A
O2463      C2473   1.264       .  A
O2463      V2469   1.906       .  S
O2464      C2474   1.264       .  A
O2465      C2474   1.262       .  A
O2466      C2473   1.262       .  A
O2466      V2470   1.896       .  S
O2467      C2472   1.262       .  A
O2468      C2471   1.262       .  A
V2469      V2470   2.091       .  T
C2471      C2523   1.436       .  S
C2472      C2616   1.435       .  S
C2473      C2652   1.435       .  S
C2474      C2490   1.435       .  S
O2475      C2485   1.262       .  A
O2475      V2483   1.893       .  S
O2476      C2486   1.262       .  A
O2477      C2487   1.261       .  A
O2478      C2488   1.262       .  A
O2479      C2488   1.264       .  A
O2480      C2487   1.264       .  A
O2481      C2486   1.263       .  A
O2482      C2485   1.263       .  A
O2482      V2484   1.903       .  S
V2483      V2484   2.091       .  T
C2485      C2654   1.432       .  S
C2486      C2547   1.432       .  S
C2487      C2564   1.433       .  S
C2488      C2521   1.434       .  S
C2489      C2490   1.206       .  T
C2491      C2492   1.206       .  T
C2493      C2494   1.206       .  T
C2495      C2496   1.404       .  A
C2495      C2500   1.399       .  A
C2495      H2501   1.083       .  S
C2496      C2497   1.405       .  A
C2497      C2498   1.399       .  A
C2497      H2502   1.082       .  S
C2498      C2499   1.405       .  A
C2498      H2503   1.082       .  S
C2499      C2500   1.404       .  A
C2500      H2504   1.083       .  S
C2505      C2506   1.206       .  T
C2507      C2508   1.205       .  T
C2509      C2510   1.207       .  T
C2511      C2512   1.403       .  A
C2511      C2516   1.397       .  A
C2511      H2517   1.083       .  S
C2512      C2513   1.406       .  A
C2513      C2514   1.399       .  A
C2513      H2518   1.082       .  S
C2514      C2515   1.406       .  A
C2514      H2519   1.082       .  S
C2515      C2516   1.404       .  A
C2516      H2520   1.080       .  S
C2521      C2522   1.205       .  T
C2523      C2524   1.206       .  T
C2525      C2526   1.206       .  T
C2527      C2528   1.400       .  A
C2527      C2532   1.397       .  A
C2527      H2533   1.083       .  S
C2528      C2529   1.406       .  A
C2529      C2530   1.401       .  A
C2529      H2534   1.083       .  S
C2530      C2531   1.405       .  A
C2530      H2535   1.083       .  S
C2531      C2532   1.402       .  A
C2532      H2536   1.076       .  S
C2537      C2538   1.404       .  A
C2537      C2542   1.399       .  A
C2537      H2543   1.083       .  S
C2538      C2539   1.406       .  A
C2539      C2540   1.399       .  A
C2539      H2544   1.082       .  S
C2540      C2541   1.405       .  A
C2540      H2545   1.082       .  S
C2541      C2542   1.404       .  A
C2542      H2546   1.083       .  S
C2547      C2548   1.204       .  T
C2549      C2550   1.206       .  T
C2551      C2552   1.206       .  T
C2553      C2554   1.405       .  A
C2553      C2558   1.402       .  A
C2553      H2559   1.083       .  S
C2554      C2555   1.402       .  A
C2555      C2556   1.396       .  A
C2555      H2560   1.076       .  S
C2556      C2557   1.400       .  A
C2556      H2561   1.084       .  S
C2557      C2558   1.406       .  A
C2558      H2562   1.083       .  S
C2563      C2564   1.204       .  T
C2565      C2566   1.206       .  T
C2567      C2568   1.205       .  T
C2569      C2570   1.402       .  A
C2569      C2574   1.391       .  A
C2569      H2575   1.076       .  S
C2570      C2571   1.408       .  A
C2571      C2572   1.401       .  A
C2571      H2576   1.081       .  S
C2572      C2573   1.408       .  A
C2572      H2577   1.081       .  S
C2573      C2574   1.402       .  A
C2574      H2578   1.075       .  S
C2579      C2580   1.404       .  A
C2579      C2584   1.400       .  A
C2579      H2585   1.083       .  S
C2580      C2581   1.402       .  A
C2581      C2582   1.396       .  A
C2581      H2586   1.077       .  S
C2582      C2583   1.400       .  A
C2582      H2587   1.084       .  S
C2583      C2584   1.405       .  A
C2584      H2588   1.083       .  S
C2589      C2590   1.206       .  T
C2591      C2592   1.205       .  T
C2593      C2594   1.206       .  T
C2595      C2596   1.401       .  A
C2595      C2600   1.397       .  A
C2595      H2601   1.081       .  S
C2596      C2597   1.403       .  A
C2597      C2598   1.401       .  A
C2597      H2602   1.083       .  S
C2598      C2599   1.403       .  A
C2598      H2603   1.083       .  S
C2599      C2600   1.401       .  A
C2600      H2604   1.081       .  S
C2605      C2606   1.403       .  A
C2605      C2610   1.398       .  A
C2605      H2611   1.083       .  S
C2606      C2607   1.405       .  A
C2607      C2608   1.398       .  A
C2607      H2612   1.083       .  S
C2608      C2609   1.405       .  A
C2608      H2613   1.082       .  S
C2609      C2610   1.404       .  A
C2610      H2614   1.083       .  S
C2615      C2616   1.206       .  T
C2617      C2618   1.205       .  T
C2619      C2620   1.206       .  T
C2621      C2622   1.402       .  A
C2621      C2626   1.396       .  A
C2621      H2627   1.077       .  S
C2622      C2623   1.404       .  A
C2623      C2624   1.400       .  A
C2623      H2628   1.083       .  S
C2624      C2625   1.404       .  A
C2624      H2629   1.083       .  S
C2625      C2626   1.400       .  A
C2626      H2630   1.084       .  S
C2631      C2632   1.408       .  A
C2631      C2636   1.401       .  A
C2631      H2637   1.081       .  S
C2632      C2633   1.402       .  A
C2633      C2634   1.391       .  A
C2633      H2638   1.076       .  S
C2634      C2635   1.401       .  A
C2634      H2639   1.074       .  S
C2635      C2636   1.408       .  A
C2636      H2640   1.081       .  S
C2641      C2642   1.402       .  A
C2641      C2646   1.396       .  A
C2641      H2647   1.083       .  S
C2642      C2643   1.405       .  A
C2643      C2644   1.399       .  A
C2643      H2648   1.082       .  S
C2644      C2645   1.406       .  A
C2644      H2649   1.082       .  S
C2645      C2646   1.403       .  A
C2646      H2650   1.080       .  S
C2651      C2652   1.206       .  T
C2653      C2654   1.204       .  T
C2655      C2656   1.207       .  T
