geometry optimzed in LAMMPS
_audit_creation_date              2020-12-01 
_audit_creation_method            'lammps2cif' 
_symmetry_space_group_name_H-M    'P1' 
_symmetry_Int_Tables_number       1 
_symmetry_cell_setting            triclinic 
loop_ 
_symmetry_equiv_pos_as_xyz 
  x,y,z 
_cell_length_a                    20.35946717 
_cell_length_b                    38.18011209889014 
_cell_length_c                    18.867972512490574 
_cell_angle_alpha                 78.69027070164947 
_cell_angle_beta                  94.94730600417593 
_cell_angle_gamma                 85.83867884259945 
loop_ 
_atom_site_label 
_atom_site_type_symbol 
_atom_site_fract_x 
_atom_site_fract_y 
_atom_site_fract_z 
_atom_site_charge 
C1          C  0.84602250  0.34364298  0.73001501     0.85300
C2          C  0.88267020  0.36230001  0.78520429    -0.55000
C3          C  0.84347846  0.37943659  0.82583144     0.08200
C4          C  0.76746730  0.37438163  0.80866188     0.19100
C5          C  0.80357281  0.31743426  0.77620140    -0.55700
C6          C  0.76194755  0.33241507  0.81838996     0.08300
C7          C  0.79400733  0.37346976  0.68518172    -0.55200
C8          C  0.75196703  0.38976750  0.72486349     0.08900
H9          H  0.93581234  0.36404234  0.78787823     0.13400
H10         H  0.73442255  0.38751823  0.84149947    -0.00900
H11         H  0.80508192  0.28920589  0.77382715     0.13700
H12         H  0.78989113  0.38054174  0.62626211     0.13500
C13         C  0.15862534  0.12518451  0.17892755     0.85300
C14         C  0.19673925  0.15516592  0.13678098    -0.55000
C15         C  0.23579287  0.17314645  0.17908458     0.08200
C16         C  0.23169815  0.15823856  0.26320515     0.19100
C17         C  0.21327780  0.10077857  0.23154788    -0.55700
C18         C  0.25290807  0.11647041  0.27554239     0.08300
C19         C  0.11862298  0.14405340  0.22841921    -0.55200
C20         C  0.15437932  0.16159370  0.27345404     0.08900
H21         H  0.19426589  0.16090046  0.07790419     0.13400
H22         H  0.26214990  0.17203734  0.29896440    -0.00900
H23         H  0.22190471  0.07228133  0.23267324     0.13700
H24         H  0.06540889  0.14321343  0.22832736     0.13500
N25         N  0.96241165  0.56172646  0.84226861    -0.07300
N26         N  0.99004933  0.57068417  0.78150123    -0.59500
N27         N  0.85887905  0.05787866  0.96963099    -0.07000
N28         N  0.79906555  0.07137329  0.97716918    -0.61600
N29         N  0.90236039  0.08124694  0.97696795    -0.06600
N30         N  0.87180643  0.11119820  0.98783375    -0.59400
N31         N  0.92308275  0.53613385  0.83695773    -0.06300
N32         N  0.92587310  0.52660479  0.77344115    -0.61900
C33         C  0.96734298  0.54876589  0.73895310     0.94800
C34         C  0.80697531  0.10473615  0.98841380     0.94600
N35         N  0.88881408  0.95586263  0.08132371    -0.07500
N36         N  0.88100911  0.96095974  0.14763471    -0.60000
N37         N  0.89605244  0.45416560  0.90179793    -0.05700
N38         N  0.85614557  0.44128139  0.85539015    -0.61300
N39         N  0.93561220  0.42806732  0.94407356    -0.07600
N40         N  0.92331678  0.39696847  0.92529342    -0.60300
N41         N  0.84615529  0.97833209  0.03427682    -0.05300
N42         N  0.80716023  0.99668250  0.06857502    -0.61400
Mn43       Mn  0.87924412  0.00645594  0.93375162     1.18400
C44         C  0.82993095  0.98648066  0.13907001     0.96900
C45         C  0.87317272  0.40542016  0.86977265     0.97600
N46         N  0.05531393  0.08242870  0.05466632    -0.07600
N47         N  0.07105297  0.11279201  0.07527543    -0.63900
N48         N  0.14543042  0.53306217  0.96597109    -0.06400
N49         N  0.19005826  0.51704762  0.93409541    -0.64600
N50         N  0.10439725  0.55555924  0.91757283    -0.07100
N51         N  0.11890931  0.55307240  0.85148680    -0.64200
N52         N  0.09057598  0.05498822  0.09765623    -0.06000
N53         N  0.12967603  0.06582936  0.14692458    -0.64800
Mn54       Mn  0.00424039  0.07171030  0.94816316     1.10700
C55         C  0.11787973  0.10194384  0.13400812     0.98100
C56         C  0.17320435  0.52927709  0.86274064     0.98200
N57         N  0.09150585  0.42863514  0.02366294    -0.07100
N58         N  0.12654127  0.39807293  0.02250069    -0.62500
N59         N  0.06962527  0.97366588  0.16020690    -0.06400
N60         N  0.07054613  0.98179633  0.22522799    -0.59200
N61         N  0.03078249  0.94794253  0.15543450    -0.07700
N62         N  0.00658406  0.93752657  0.21791303    -0.62000
N63         N  0.13217428  0.45377633  0.02704507    -0.06700
N64         N  0.19347118  0.44137903  0.02408319    -0.59200
Mn65       Mn  0.98775712  0.43886243  0.05019083     1.20200
Mn66       Mn  0.10995862  0.50420140  0.06370968     1.10100
Cl67       Cl  0.99449233  0.00482519  0.99864578    -0.87200
C68         C  0.19062436  0.40653006  0.02209350     0.95100
C69         C  0.03142279  0.95869456  0.26109777     0.94900
N70         N  0.58577799  0.20732316  0.13841168    -0.07300
N71         N  0.60778673  0.17516589  0.17301800    -0.59500
N72         N  0.54677240  0.28988890  0.13986940    -0.07000
N73         N  0.55388675  0.31625607  0.17470393    -0.61600
N74         N  0.50162019  0.26976051  0.16811712    -0.06600
N75         N  0.47953550  0.28137410  0.22394844    -0.59400
N76         N  0.63286260  0.22403406  0.10589538    -0.06300
N77         N  0.68861513  0.20183679  0.11809599    -0.61900
C78         C  0.67111143  0.17117009  0.16080540     0.94800
C79         C  0.51163622  0.31096500  0.22648458     0.94600
N80         N  0.53038883  0.34201472  0.92780957    -0.07500
N81         N  0.52077734  0.37692510  0.90104350    -0.60000
N82         N  0.65652020  0.28237429  0.94412737    -0.05700
N83         N  0.71370827  0.29695792  0.93253993    -0.61300
N84         N  0.61909629  0.28725834  0.88130835    -0.07600
N85         N  0.65126592  0.30421744  0.82788791    -0.60300
N86         N  0.56860705  0.33560131  0.98955224    -0.05300
N87         N  0.58685704  0.36553680  0.00580827    -0.61400
Mn88       Mn  0.60363655  0.28152358  0.04677486     1.18400
C89         C  0.55749640  0.39099198  0.95013320     0.96900
C90         C  0.71068357  0.31028330  0.85942888     0.97600
N91         N  0.36926169  0.22864473  0.12575301    -0.07600
N92         N  0.33760342  0.21003662  0.17799807    -0.63900
N93         N  0.42812117  0.17942539  0.01961191    -0.06400
N94         N  0.42515565  0.14877347  0.99859896    -0.64600
N95         N  0.46395424  0.17498643  0.08238489    -0.07100
N96         N  0.48786920  0.14122181  0.10517244    -0.64200
N97         N  0.33402964  0.23208568  0.06208795    -0.06000
N98         N  0.27908732  0.21527388  0.07182799    -0.64800
Mn99       Mn  0.48034684  0.22147614  0.12958171     1.10700
C100        C  0.28067081  0.20174034  0.14457510     0.98100
C101        C  0.46185426  0.12523019  0.05283894     0.98200
N102        N  0.48677831  0.24740175  0.83785673    -0.07100
N103        N  0.51294078  0.23412347  0.78561269    -0.62500
N104        N  0.35648763  0.28921131  0.90439791    -0.06400
N105        N  0.29731848  0.30767680  0.89420762    -0.59200
N106        N  0.40045867  0.30962114  0.87416091    -0.07700
N107        N  0.37231188  0.34158057  0.84328738    -0.62000
N108        N  0.44471652  0.22590146  0.86863287    -0.06700
N109        N  0.44316597  0.19744569  0.83930532    -0.59200
Mn110      Mn  0.50794833  0.29607774  0.87850993     1.20200
Mn111      Mn  0.38885091  0.23279421  0.96169264     1.10100
Cl112      Cl  0.49521970  0.25821800  0.00384382    -0.87200
C113        C  0.48611568  0.20245850  0.78856342     0.95100
C114        C  0.30838760  0.34037197  0.85543850     0.94900
N115        N  0.89448977  0.30383544  0.38851477    -0.07300
N116        N  0.83154758  0.31043498  0.36298308    -0.59500
N117        N  0.05636421  0.31892442  0.39357636    -0.07000
N118        N  0.11380971  0.33032691  0.37416178    -0.61600
N119        N  0.03617911  0.29748774  0.35091021    -0.06600
N120        N  0.07761322  0.29387174  0.30349197    -0.59400
N121        N  0.90985413  0.32610254  0.43131904    -0.06300
N122        N  0.85804174  0.34812546  0.43582158    -0.61900
C123        C  0.81000900  0.33818495  0.39242283     0.94800
C124        C  0.12630366  0.31365274  0.31835195     0.94600
N125        N  0.11724947  0.28459328  0.61261019    -0.07500
N126        N  0.18230562  0.27770024  0.62410293    -0.60000
N127        N  0.95377451  0.31846420  0.59793153    -0.05700
N128        N  0.90739186  0.34107774  0.61483530    -0.61300
N129        N  0.96906059  0.29085216  0.65236771    -0.07600
N130        N  0.93372125  0.29461848  0.70727161    -0.60300
N131        N  0.10125298  0.31272724  0.55980447    -0.05300
N132        N  0.15484214  0.32568901  0.53548663    -0.61400
Mn133      Mn  0.00533713  0.32083069  0.49514681     1.18400
C134        C  0.20502796  0.30372358  0.57572373     0.96900
C135        C  0.89444245  0.32604108  0.68349429     0.97600
N136        N  0.04225739  0.21528431  0.35843338    -0.07600
N137        N  0.07613987  0.21185108  0.30223520    -0.63900
N138        N  0.91146050  0.19311650  0.45503536    -0.06400
N139        N  0.85839591  0.18144720  0.48344973    -0.64600
N140        N  0.89445731  0.22131728  0.40257907    -0.07100
N141        N  0.82966815  0.22925268  0.39471926    -0.64200
N142        N  0.05975427  0.18783783  0.41248500    -0.06000
N143        N  0.10573109  0.16551411  0.39374802    -0.64800
Mn144      Mn  0.96555769  0.25971500  0.37253576     1.10700
C145        C  0.11734448  0.18099865  0.32482794     0.98100
C146        C  0.80795667  0.20400808  0.44533991     0.98200
N147        N  0.97301170  0.20737229  0.65984890    -0.07100
N148        N  0.92964438  0.20740214  0.70741146    -0.62500
N149        N  0.10536563  0.18086824  0.57868758    -0.06400
N150        N  0.15994110  0.16296138  0.56691383    -0.59200
N151        N  0.11853213  0.20232829  0.62397118    -0.07700
N152        N  0.18275358  0.19896792  0.64396503    -0.62000
N153        N  0.95971452  0.18473386  0.61720805    -0.06700
N154        N  0.90648974  0.16868904  0.63613853    -0.59200
Mn155      Mn  0.04514592  0.24589645  0.64055518     1.20200
Mn156      Mn  0.00966086  0.18495729  0.51613078     1.10100
Cl157      Cl  0.00651722  0.25293053  0.50624811    -0.87200
C158        C  0.88830287  0.18339024  0.69214071     0.95100
C159        C  0.20759704  0.17399372  0.60908432     0.94900
N160        N  0.59886437  0.44169901  0.64177482    -0.07300
N161        N  0.63112496  0.41067319  0.67666890    -0.59500
N162        N  0.52996843  0.01502986  0.67534811    -0.07000
N163        N  0.53456726  0.02982127  0.73257032    -0.61600
N164        N  0.48910680  0.98979787  0.68349814    -0.06600
N165        N  0.46430998  0.98690889  0.74640485    -0.59400
N166        N  0.63976687  0.46699643  0.63228155    -0.06300
N167        N  0.70081547  0.45331804  0.66071553    -0.61900
C168        C  0.69512435  0.41789742  0.68857080     0.94800
C169        C  0.49330177  0.01211752  0.77594733     0.94600
N170        N  0.51708282  0.08728241  0.47500829    -0.07500
N171        N  0.49426735  0.12113605  0.45934234    -0.60000
N172        N  0.65329872  0.53134057  0.49614021    -0.05700
N173        N  0.71810126  0.52525150  0.49989311    -0.61300
N174        N  0.62743074  0.54322374  0.42828685    -0.07600
N175        N  0.67517376  0.54579166  0.38477465    -0.60300
N176        N  0.54511968  0.07798934  0.54227926    -0.05300
N177        N  0.54319277  0.10650089  0.57259283    -0.61400
Mn178      Mn  0.59236305  0.02209565  0.58669422     1.18400
C179        C  0.51081988  0.13335333  0.51995630     0.94500
C180        C  0.73109585  0.53474045  0.43041075     0.97600
N181        N  0.37689495  0.96653118  0.57889996    -0.07600
N182        N  0.32877787  0.96472700  0.62204135    -0.63900
N183        N  0.46245951  0.43114763  0.46536663    -0.06400
N184        N  0.46492789  0.40264810  0.43501693    -0.64600
N185        N  0.49119828  0.42201730  0.53231125    -0.07100
N186        N  0.51506194  0.38835059  0.54777790    -0.64200
N187        N  0.35168973  0.97864768  0.51102472    -0.06000
N188        N  0.28700183  0.98570679  0.50663077    -0.64800
Mn189      Mn  0.48920147  0.45549464  0.61089210     1.10700
C190        C  0.27329049  0.97665051  0.57596650     0.98100
C191        C  0.49831333  0.37599671  0.48743461     0.98200
N192        N  0.51425023  0.51998363  0.32143849    -0.07100
N193        N  0.53340922  0.52349361  0.25520974    -0.62500
N194        N  0.36745415  0.04276841  0.37726064    -0.06400
N195        N  0.30620186  0.05620535  0.35033778    -0.59200
N196        N  0.40743024  0.06848678  0.36787689    -0.07700
N197        N  0.37381998  0.09972466  0.33515330    -0.62000
N198        N  0.47533221  0.49394765  0.33329173    -0.06700
N199        N  0.46714247  0.47910442  0.27658345    -0.59200
Mn200      Mn  0.51727907  0.05363633  0.39639532     1.20200
Mn201      Mn  0.41409633  0.48696743  0.42216557     1.10100
Cl202      Cl  0.50190222  0.00339976  0.50321525    -0.87200
C203        C  0.50369233  0.49741467  0.22860506     0.95100
C204        C  0.30964780  0.09213843  0.32504245     0.94900
C205        C  0.52289661  0.17141508  0.51290083    -0.06500
C206        C  0.51337639  0.19239110  0.44179668    -0.06400
C207        C  0.56646806  0.20915335  0.41271573    -0.24600
C208        C  0.62510603  0.20841011  0.45747155     0.17700
C209        C  0.62538209  0.19684463  0.53366085     0.14900
C210        C  0.57237995  0.17945283  0.56158001    -0.19600
C211        C  0.68283643  0.19711373  0.57918278    -0.21400
C212        C  0.74198643  0.20240527  0.54896080    -0.14000
C213        C  0.74386619  0.20800034  0.47353533     0.02700
C214        C  0.68485668  0.21456777  0.42749328    -0.26100
H215        H  0.47203171  0.18895690  0.40435544     0.07800
H216        H  0.56404606  0.21917670  0.35460565     0.11400
H217        H  0.57789730  0.16517239  0.61771763     0.11300
H218        H  0.68307847  0.19000914  0.63763095     0.11100
H219        H  0.78704325  0.20020080  0.58444282     0.11600
H220        H  0.68616991  0.22040903  0.36906978     0.13600
C221        C  0.48630564  0.33792592  0.49562685    -0.06500
C222        C  0.49938499  0.31666813  0.56636464    -0.06400
C223        C  0.44817414  0.29930402  0.59868090    -0.24600
C224        C  0.38753649  0.30011950  0.55730167     0.17700
C225        C  0.38391957  0.31176460  0.48079957     0.14900
C226        C  0.43470454  0.32987268  0.44980686    -0.19600
C227        C  0.32547388  0.31067040  0.43799344    -0.21400
C228        C  0.26824892  0.30443821  0.47099933    -0.14000
C229        C  0.26873922  0.29956986  0.54668396     0.02700
C230        C  0.32913175  0.29392642  0.59049580    -0.26100
H231        H  0.54239433  0.32018649  0.60139766     0.07800
H232        H  0.45360569  0.28888389  0.65679991     0.11400
H233        H  0.42643412  0.34426839  0.39371076     0.11300
H234        H  0.32292576  0.31773294  0.37930358     0.11100
H235        H  0.22280792  0.30562288  0.43715200     0.11600
H236        H  0.32997485  0.28847372  0.64921395     0.13600
C237        C  0.49990066  0.49238310  0.15365560    -0.06500
C238        C  0.43924747  0.48366630  0.12345484    -0.06400
C239        C  0.43619938  0.46873167  0.06208430    -0.24600
C240        C  0.49396754  0.46211166  0.03027117     0.17700
C241        C  0.55453885  0.47335458  0.05691442     0.14900
C242        C  0.55689817  0.48925169  0.11807290    -0.19600
C243        C  0.61242434  0.46565809  0.02562756    -0.21400
C244        C  0.61171767  0.44275889  0.97629006    -0.14000
C245        C  0.55289734  0.42835744  0.95665572     0.02700
C246        C  0.49317654  0.44118510  0.97738751    -0.26100
H247        H  0.39461824  0.48646169  0.15005145     0.07800
H248        H  0.38943295  0.46063836  0.04186151     0.11400
H249        H  0.60370854  0.49582166  0.14174735     0.11300
H250        H  0.65909874  0.47442382  0.04433645     0.11100
H251        H  0.65837042  0.43274715  0.96071551     0.11600
H252        H  0.44794642  0.42972551  0.96263390     0.13600
C253        C  0.48222488  0.01984523  0.84636504    -0.06500
C254        C  0.41889501  0.01899892  0.86948258    -0.06400
C255        C  0.40430947  0.03448020  0.92771632    -0.24600
C256        C  0.45376467  0.04992405  0.96415483     0.17700
C257        C  0.51946292  0.04763088  0.94519776     0.14900
C258        C  0.53322251  0.03253019  0.88611628    -0.19600
C259        C  0.56894914  0.06282197  0.98226910    -0.21400
C260        C  0.55162067  0.08412490  0.03101025    -0.14000
C261        C  0.48492798  0.09009966  0.04224042     0.02700
C262        C  0.43741012  0.07045999  0.01435541    -0.26100
H263        H  0.38000926  0.00857459  0.83966588     0.07800
H264        H  0.35394541  0.03563745  0.94236823     0.11400
H265        H  0.58265310  0.03243700  0.86858169     0.11300
H266        H  0.61975791  0.06071656  0.96916320     0.11100
H267        H  0.58852525  0.09954228  0.05207138     0.11600
H268        H  0.38589453  0.07539426  0.02343178     0.13600
C269        C  0.27789098  0.16983154  0.59922315    -0.06500
C270        C  0.30408230  0.19826026  0.55492283    -0.06400
C271        C  0.37003673  0.20455652  0.56875213    -0.24600
C272        C  0.40867838  0.18316840  0.62872359     0.17700
C273        C  0.38616284  0.15059787  0.66386065     0.14900
C274        C  0.32028993  0.14383871  0.64805999    -0.19600
C275        C  0.42547498  0.12910736  0.72329952    -0.21400
C276        C  0.47683608  0.14387282  0.75784177    -0.14000
C277        C  0.48706575  0.18011655  0.73352882     0.02700
C278        C  0.46180098  0.19708844  0.66282118    -0.26100
H279        H  0.27171593  0.21800162  0.51572771     0.07800
H280        H  0.38778474  0.22864200  0.53896938     0.11400
H281        H  0.29981497  0.12163779  0.68153339     0.11300
H282        H  0.41076320  0.10334583  0.74926757     0.11100
H283        H  0.49854107  0.12968726  0.81113257     0.11600
H284        H  0.47231827  0.22441690  0.64218304     0.13600
C285        C  0.74046890  0.35134394  0.38664590    -0.06500
C286        C  0.71673430  0.38276365  0.33650008    -0.06400
C287        C  0.65015360  0.38785621  0.30868626    -0.24600
C288        C  0.60846922  0.36074876  0.32921412     0.17700
C289        C  0.63048229  0.33168944  0.38746327     0.14900
C290        C  0.69639453  0.32769727  0.41722634    -0.19600
C291        C  0.58996380  0.30392892  0.40603095    -0.21400
C292        C  0.53564798  0.30106796  0.35789393    -0.14000
C293        C  0.52262958  0.32587294  0.29191888     0.02700
C294        C  0.55142789  0.35851824  0.28398633    -0.26100
H295        H  0.75075156  0.40130489  0.31333618     0.07800
H296        H  0.63369956  0.41054751  0.26489388     0.11400
H297        H  0.71543903  0.30348293  0.45619695     0.11300
H298        H  0.60448026  0.28244889  0.45264065     0.11100
H299        H  0.51009735  0.27698093  0.36711094     0.11600
H300        H  0.53961529  0.37822962  0.23375518     0.13600
C301        C  0.82900394  0.01484942  0.18128623    -0.06500
C302        C  0.87576475  0.04028805  0.16851446    -0.06400
C303        C  0.85887347  0.07646410  0.16960315    -0.24600
C304        C  0.79490931  0.08758468  0.18345259     0.17700
C305        C  0.75143863  0.06096443  0.20515274     0.14900
C306        C  0.76902253  0.02488199  0.20494970    -0.19600
C307        C  0.68839412  0.07093195  0.22065963    -0.21400
C308        C  0.66652790  0.10678188  0.21085032    -0.14000
C309        C  0.70583206  0.13425426  0.18207279     0.02700
C310        C  0.77167314  0.12447167  0.17122628    -0.26100
H311        H  0.92237161  0.03303673  0.14898780     0.07800
H312        H  0.89385865  0.09594469  0.15414735     0.11400
H313        H  0.73263808  0.00548379  0.21388492     0.11300
H314        H  0.65463621  0.05095275  0.23745927     0.11100
H315        H  0.61615258  0.11254603  0.22234433     0.11600
H316        H  0.80329171  0.14497384  0.15086851     0.13600
C317        C  0.18612015  0.50387891  0.81576222    -0.06500
C318        C  0.24700366  0.50324612  0.78699534    -0.06400
C319        C  0.27868862  0.47074779  0.77937610    -0.24600
C320        C  0.24991880  0.43855291  0.80120064     0.17700
C321        C  0.18579978  0.43926734  0.82397303     0.14900
C322        C  0.15323489  0.47228469  0.82871537    -0.19600
C323        C  0.15821334  0.40676941  0.84775986    -0.21400
C324        C  0.19648958  0.37387811  0.85552812    -0.14000
C325        C  0.26175272  0.37321949  0.83692046     0.02700
C326        C  0.28643190  0.40565715  0.80581850    -0.26100
H327        H  0.27322173  0.52715355  0.77814205     0.07800
H328        H  0.32814866  0.47045788  0.76244061     0.11400
H329        H  0.10665877  0.47264021  0.85262909     0.11300
H330        H  0.10870603  0.40688759  0.86469835     0.11100
H331        H  0.17615810  0.34926303  0.87873352     0.11600
H332        H  0.33636003  0.40567491  0.78999315     0.13600
C333        C  0.00636924  0.54021329  0.68137421    -0.06500
C334        C  0.03375634  0.06841126  0.63935781    -0.06400
C335        C  0.08822434  0.06094516  0.60280702    -0.24600
C336        C  0.11551412  0.02548970  0.61017065     0.17700
C337        C  0.08593029  0.49659476  0.64917548     0.14900
C338        C  0.02985892  0.50438355  0.68381420    -0.19600
C339        C  0.11515991  0.46126679  0.65920436    -0.21400
C340        C  0.17705134  0.45453004  0.63507484    -0.14000
C341        C  0.20701335  0.98313163  0.59830964     0.02700
C342        C  0.17606317  0.01817398  0.58339363    -0.26100
H343        H  0.01723074  0.09612716  0.63851436     0.07800
H344        H  0.11168074  0.08304658  0.57294225     0.11400
H345        H  0.00935001  0.48285120  0.71914617     0.11300
H346        H  0.09204564  0.43912692  0.68938690     0.11100
H347        H  0.20058113  0.42738471  0.64632060     0.11600
H348        H  0.20109899  0.03997422  0.55469884     0.13600
C349        C  0.79682138  0.52833308  0.40730746    -0.06500
C350        C  0.82877738  0.55641406  0.36963510    -0.06400
C351        C  0.89075591  0.04447953  0.35093728    -0.24600
C352        C  0.91898319  0.00907483  0.35902521     0.17700
C353        C  0.88694252  0.48555955  0.39469975     0.14900
C354        C  0.82739878  0.49327561  0.42271004    -0.19600
C355        C  0.91293240  0.44991835  0.40167061    -0.21400
C356        C  0.96675151  0.93776996  0.36394146    -0.14000
C357        C  0.99589664  0.96590711  0.32211099     0.02700
C358        C  0.97494786  0.00156811  0.32418270    -0.26100
H359        H  0.80586441  0.58369289  0.35866105     0.07800
H360        H  0.91488466  0.06676098  0.32289830     0.11400
H361        H  0.80250649  0.47169766  0.45237137     0.11300
H362        H  0.88948039  0.42810568  0.43246916     0.11100
H363        H  0.98201532  0.91015660  0.36248571     0.11600
H364        H  0.99644094  0.02343042  0.29094947     0.13600
C365        C  0.18528170  0.31286345  0.27829097    -0.06500
C366        C  0.18971549  0.28682526  0.23452621    -0.06400
C367        C  0.21444772  0.29503548  0.16759355    -0.24600
C368        C  0.23958423  0.32803379  0.14752707     0.17700
C369        C  0.25451055  0.34841463  0.20121178     0.14900
C370        C  0.22498907  0.34143024  0.26661911    -0.19600
C371        C  0.28773682  0.37909266  0.18210162    -0.21400
C372        C  0.28944458  0.39370686  0.10841809    -0.14000
C373        C  0.24779563  0.38082982  0.05727455     0.02700
C374        C  0.23725616  0.34447103  0.07394793    -0.26100
H375        H  0.16414287  0.26274026  0.24587896     0.07800
H376        H  0.20647573  0.27784009  0.12889665     0.11400
H377        H  0.22501509  0.36067882  0.30186807     0.11300
H378        H  0.30476460  0.39389050  0.22254271     0.11100
H379        H  0.30670757  0.42011301  0.09459766     0.11600
H380        H  0.21191384  0.33241688  0.03313284     0.13600
C381        C  0.82976951  0.17597738  0.73125850    -0.06500
C382        C  0.79170668  0.14787176  0.72086752    -0.06400
C383        C  0.74623020  0.13624164  0.76983490    -0.24600
C384        C  0.74302825  0.15082069  0.83236162     0.17700
C385        C  0.77640959  0.18144872  0.83888043     0.14900
C386        C  0.81635627  0.19514968  0.78563096    -0.19600
C387        C  0.78063398  0.19287471  0.90541558    -0.21400
C388        C  0.76955969  0.16854671  0.96811308    -0.14000
C389        C  0.75377996  0.13406363  0.96144630     0.02700
C390        C  0.72070391  0.13088602  0.89468409    -0.26100
H391        H  0.79987298  0.13360402  0.67766392     0.07800
H392        H  0.72072792  0.11287935  0.76396158     0.11400
H393        H  0.84454913  0.21741420  0.79300667     0.11300
H394        H  0.80377019  0.21699235  0.91105879     0.11100
H395        H  0.78841410  0.17346711  0.02032745     0.11600
H396        H  0.70002584  0.10586796  0.89062725     0.13600
C397        C  0.84533285  0.84294350  0.73007168     0.85300
C398        C  0.88153473  0.86204091  0.78472736    -0.55000
C399        C  0.84208838  0.87898122  0.82537961     0.08200
C400        C  0.76622945  0.87337660  0.80860427     0.19100
C401        C  0.80367154  0.81649868  0.77675800    -0.55700
C402        C  0.76175582  0.83135271  0.81879792     0.08300
C403        C  0.79253919  0.87228202  0.68509667    -0.55200
C404        C  0.75009555  0.88835268  0.72473031     0.08900
H405        H  0.93459953  0.86405562  0.78729300     0.13400
H406        H  0.73294310  0.88637872  0.84141146    -0.00900
H407        H  0.80575721  0.78822978  0.77467945     0.13700
H408        H  0.78818857  0.87915854  0.62615254     0.13500
C409        C  0.15892513  0.62563163  0.17959755     0.85300
C410        C  0.19710533  0.65563990  0.13768493    -0.55000
C411        C  0.23575099  0.67371980  0.18016645     0.08200
C412        C  0.23115663  0.65893822  0.26412115     0.19100
C413        C  0.21346954  0.60133130  0.23271212    -0.55700
C414        C  0.25275489  0.61724805  0.27672983     0.08300
C415        C  0.11841148  0.64446961  0.22867918    -0.55200
C416        C  0.15374612  0.66212476  0.27380497     0.08900
H417        H  0.19502500  0.66129577  0.07883450     0.13400
H418        H  0.26123363  0.67285456  0.29997763    -0.00900
H419        H  0.22232985  0.57282504  0.23402989     0.13700
H420        H  0.06519557  0.64351307  0.22828165     0.13500
N421        N  0.96049740  0.06118798  0.84332866    -0.07300
N422        N  0.98792274  0.07045873  0.78254647    -0.59500
N423        N  0.86053221  0.55877439  0.96845855    -0.07000
N424        N  0.80080298  0.57229491  0.97620626    -0.61600
N425        N  0.90402884  0.58216277  0.97557522    -0.06600
N426        N  0.87357036  0.61217138  0.98632539    -0.59400
N427        N  0.92131737  0.03555482  0.83779699    -0.06300
N428        N  0.92406891  0.02629337  0.77400138    -0.61900
C429        C  0.96531417  0.04869392  0.73965331     0.94800
C430        C  0.80877614  0.60569414  0.98723467     0.94600
N431        N  0.88975582  0.45702296  0.08026672    -0.07500
N432        N  0.88154270  0.46263059  0.14613477    -0.60000
N433        N  0.89431227  0.95349448  0.90237916    -0.05700
N434        N  0.85441124  0.94070706  0.85579842    -0.61300
N435        N  0.93399434  0.92736097  0.94433606    -0.07600
N436        N  0.92178264  0.89632857  0.92520356    -0.60300
N437        N  0.84706151  0.47914521  0.03262138    -0.05300
N438        N  0.80750574  0.49761333  0.06608578    -0.61400
Mn439      Mn  0.88081544  0.50722129  0.93270304     1.18400
C440        C  0.83016203  0.48804172  0.13665378     0.96900
C441        C  0.87153684  0.90485715  0.86978778     0.97600
N442        N  0.05667087  0.58309926  0.05404994    -0.07600
N443        N  0.07206300  0.61339458  0.07516620    -0.63900
N444        N  0.14396373  0.03251558  0.96642579    -0.06400
N445        N  0.18891651  0.01669505  0.93460193    -0.64600
N446        N  0.10280395  0.05492475  0.91801834    -0.07100
N447        N  0.11755983  0.05254097  0.85192737    -0.64200
N448        N  0.09185013  0.55563880  0.09705429    -0.06000
N449        N  0.13052285  0.56636848  0.14684396    -0.64800
Mn450      Mn  0.00589922  0.57242985  0.94725444     1.10700
C451        C  0.11856542  0.60245549  0.13421201     0.98100
C452        C  0.17219671  0.02893621  0.86321005     0.98200
N453        N  0.08987214  0.92807936  0.02319892    -0.07100
N454        N  0.12484166  0.89757918  0.02155045    -0.62500
N455        N  0.07077078  0.47470521  0.15967997    -0.06400
N456        N  0.07085289  0.48359255  0.22394050    -0.59200
N457        N  0.03156877  0.44910364  0.15526683    -0.07700
N458        N  0.00628944  0.43951702  0.21740340    -0.62000
N459        N  0.13051900  0.95321483  0.02677405    -0.06700
N460        N  0.19174487  0.94088527  0.02333018    -0.59200
Mn461      Mn  0.98649380  0.93799789  0.05037507     1.20200
Mn462      Mn  0.10854836  0.00351425  0.06414541     1.10100
Cl463      Cl  0.99597175  0.50556770  0.99794492    -0.87200
C464        C  0.18887498  0.90606815  0.02102147     0.95100
C465        C  0.03081775  0.46111631  0.25983420     0.94900
N466        N  0.58639393  0.70872042  0.14187020    -0.07300
N467        N  0.60898559  0.67675463  0.17720437    -0.59500
N468        N  0.54644781  0.79162150  0.13819636    -0.07000
N469        N  0.55423001  0.81849001  0.17135419    -0.61600
N470        N  0.50157133  0.77179791  0.16801366    -0.06600
N471        N  0.48052322  0.78414226  0.22357326    -0.59400
N472        N  0.63285963  0.72522519  0.10775663    -0.06300
N473        N  0.68863464  0.70314240  0.11937356    -0.61900
C474        C  0.67197381  0.67275768  0.16358159     0.94800
C475        C  0.51291067  0.81385812  0.22402000     0.94600
N476        N  0.53046794  0.84143041  0.92506117    -0.07500
N477        N  0.52036521  0.87625055  0.89733794    -0.60000
N478        N  0.65659788  0.78159888  0.94470359    -0.05700
N479        N  0.71355101  0.79637568  0.93305219    -0.61300
N480        N  0.61960042  0.78574469  0.88176674    -0.07600
N481        N  0.65191499  0.80242159  0.82819544    -0.60300
N482        N  0.56825068  0.83559952  0.98700091    -0.05300
N483        N  0.58580100  0.86578984  0.00248866    -0.61400
Mn484      Mn  0.60333639  0.78205587  0.04630678     1.18400
C485        C  0.55646762  0.89082779  0.94611756     0.96900
C486        C  0.71088923  0.80905007  0.85982732     0.97600
N487        N  0.36930505  0.72935054  0.12759978    -0.07600
N488        N  0.33742600  0.71076826  0.17970756    -0.63900
N489        N  0.42941507  0.67925489  0.02435226    -0.06400
N490        N  0.42774451  0.64840524  0.00397603    -0.64600
N491        N  0.46521728  0.67540069  0.08704189    -0.07100
N492        N  0.49039005  0.64185483  0.11034191    -0.64200
N493        N  0.33444088  0.73250043  0.06380295    -0.06000
N494        N  0.27956658  0.71563094  0.07329237    -0.64800
Mn495      Mn  0.48070645  0.72261365  0.13221340     1.10700
C496        C  0.28076364  0.70228055  0.14598941     0.98100
C497        C  0.46514258  0.62535542  0.05843123     0.98200
N498        N  0.48713176  0.74519932  0.83999049    -0.07100
N499        N  0.51252274  0.73104183  0.78831709    -0.62500
N500        N  0.35719079  0.78846440  0.90509829    -0.06400
N501        N  0.29849556  0.80734644  0.89612492    -0.59200
N502        N  0.40106406  0.80851826  0.87362302    -0.07700
N503        N  0.37333291  0.84065055  0.84318179    -0.62000
N504        N  0.44505607  0.72418695  0.87214200    -0.06700
N505        N  0.44277796  0.69524653  0.84457256    -0.59200
Mn506      Mn  0.50840873  0.79466656  0.87818406     1.20200
Mn507      Mn  0.38955120  0.73226224  0.96434120     1.10100
Cl508      Cl  0.49551428  0.75810591  0.00499027    -0.87200
C509        C  0.48520487  0.69936861  0.79331504     0.95100
C510        C  0.30972644  0.83991031  0.85683750     0.94900
N511        N  0.89658789  0.80551132  0.38842244    -0.07300
N512        N  0.83432311  0.81327849  0.36100210    -0.59500
N513        N  0.05908173  0.81878183  0.39590904    -0.07000
N514        N  0.11677848  0.82991829  0.37664013    -0.61600
N515        N  0.03820335  0.79778184  0.35261862    -0.06600
N516        N  0.07935067  0.79419034  0.30494659    -0.59400
N517        N  0.91235185  0.82725625  0.43220580    -0.06300
N518        N  0.86133293  0.85001213  0.43573092    -0.61900
C519        C  0.81355592  0.84116789  0.39039462     0.94800
C520        C  0.12861665  0.81351765  0.32024235     0.94600
N521        N  0.11770650  0.78280992  0.61533115    -0.07500
N522        N  0.18257142  0.77502144  0.62715837    -0.60000
N523        N  0.95494918  0.81826420  0.59932683    -0.05700
N524        N  0.90855922  0.84094896  0.61600345    -0.61300
N525        N  0.96888971  0.79026936  0.65316917    -0.07600
N526        N  0.93258474  0.79379842  0.70741338    -0.60300
N527        N  0.10305888  0.81129497  0.56304364    -0.05300
N528        N  0.15745256  0.82360696  0.53954222    -0.61400
Mn529      Mn  0.00750256  0.82069254  0.49722645     1.18400
C530        C  0.20670930  0.80086023  0.57964936     0.96900
C531        C  0.89414299  0.82549603  0.68384433     0.97600
N532        N  0.04140714  0.71589334  0.35821585    -0.07600
N533        N  0.07592693  0.71255929  0.30244566    -0.63900
N534        N  0.90890804  0.69459244  0.45269364    -0.06400
N535        N  0.85523734  0.68317629  0.48012704    -0.64600
N536        N  0.89290998  0.72323687  0.40103528    -0.07100
N537        N  0.82821999  0.73177688  0.39295565    -0.64200
N538        N  0.05779906  0.68813953  0.41185589    -0.06000
N539        N  0.10360823  0.66568021  0.39329652    -0.64800
Mn540      Mn  0.96598615  0.76082576  0.37255041     1.10700
C541        C  0.11630921  0.68141276  0.32494806     0.98100
C542        C  0.80540834  0.70635342  0.44239311     0.98200
N543        N  0.97029530  0.70714712  0.65875860    -0.07100
N544        N  0.92674978  0.70726885  0.70605838    -0.62500
N545        N  0.10253199  0.67985794  0.57868465    -0.06400
N546        N  0.15667574  0.66114806  0.56816217    -0.59200
N547        N  0.11596962  0.70077397  0.62498700    -0.07700
N548        N  0.17983530  0.69619414  0.64706076    -0.62000
N549        N  0.95650651  0.68490759  0.61540641    -0.06700
N550        N  0.90275736  0.66920268  0.63357442    -0.59200
Mn551      Mn  0.04386261  0.74488847  0.64136966     1.20200
Mn552      Mn  0.00698413  0.68520325  0.51482217     1.10100
Cl553      Cl  0.00621846  0.75298908  0.50664159    -0.87200
C554        C  0.88477356  0.68373955  0.68984418     0.95100
C555        C  0.20422498  0.67105119  0.61232362     0.94900
N556        N  0.59606612  0.93924938  0.64081055    -0.07300
N557        N  0.62876309  0.90838756  0.67611491    -0.59500
N558        N  0.53372761  0.51705393  0.67788130    -0.07000
N559        N  0.53914305  0.53149204  0.73558870    -0.61600
N560        N  0.49246924  0.49200486  0.68579556    -0.06600
N561        N  0.46828337  0.48888982  0.74908896    -0.59400
N562        N  0.63659568  0.96472594  0.63151580    -0.06300
N563        N  0.69768812  0.95141591  0.66027258    -0.61900
C564        C  0.69257886  0.91600391  0.68830913     0.94800
C565        C  0.49799597  0.51376746  0.77909261     0.94600
N566        N  0.51777642  0.58977783  0.47794468    -0.07500
N567        N  0.49404725  0.62348186  0.46311595    -0.60000
N568        N  0.65127335  0.02778398  0.49543411    -0.05700
N569        N  0.71588288  0.02058688  0.49997040    -0.61300
N570        N  0.62608904  0.03931645  0.42726978    -0.07600
N571        N  0.67415740  0.04058623  0.38421736    -0.60300
N572        N  0.54674975  0.58042316  0.54486740    -0.05300
N573        N  0.54449438  0.60877779  0.57569040    -0.61400
Mn574      Mn  0.59517128  0.52460292  0.58829297     1.18400
C575        C  0.51098569  0.63557959  0.52378224     0.94500
C576        C  0.72948578  0.02900721  0.43056485     0.97600
N577        N  0.37969313  0.46838606  0.58054739    -0.07600
N578        N  0.33119876  0.46568858  0.62322779    -0.63900
N579        N  0.45872146  0.92863549  0.46392274    -0.06400
N580        N  0.46131653  0.90011916  0.43354405    -0.64600
N581        N  0.48778055  0.91955440  0.53076151    -0.07100
N582        N  0.51192886  0.88593822  0.54612753    -0.64200
N583        N  0.35463415  0.48027933  0.51256275    -0.06000
N584        N  0.28974931  0.48632454  0.50762534    -0.64800
Mn585      Mn  0.48621517  0.95312016  0.60925197     1.10700
C586        C  0.27567860  0.47683958  0.57670363     0.98100
C587        C  0.49517703  0.87355953  0.48582005     0.98200
N588        N  0.51277792  0.01674243  0.32048412    -0.07100
N589        N  0.53292137  0.01986416  0.25480706    -0.62500
N590        N  0.36894421  0.54458777  0.37923604    -0.06400
N591        N  0.30752596  0.55741054  0.35179302    -0.59200
N592        N  0.40808022  0.57069964  0.37006591    -0.07700
N593        N  0.37366736  0.60163286  0.33690686    -0.62000
N594        N  0.47296954  0.99111495  0.33187786    -0.06700
N595        N  0.46515168  0.97613894  0.27528530    -0.59200
Mn596      Mn  0.51827136  0.55662933  0.39822556     1.20200
Mn597      Mn  0.41120413  0.98475751  0.42044664     1.10100
Cl598      Cl  0.50440224  0.50595909  0.50492927    -0.87200
C599        C  0.50288351  0.99398675  0.22794566     0.95100
C600        C  0.30992491  0.59339408  0.32636611     0.94900
C601        C  0.52204079  0.67379581  0.51686934    -0.06500
C602        C  0.51070735  0.69493150  0.44597110    -0.06400
C603        C  0.56306392  0.71174534  0.41514280    -0.24600
C604        C  0.62267414  0.71109515  0.45827619     0.17700
C605        C  0.62454219  0.69967096  0.53467606     0.14900
C606        C  0.57239124  0.68205767  0.56423982    -0.19600
C607        C  0.68270397  0.70030786  0.57874185    -0.21400
C608        C  0.74106405  0.70572784  0.54696165    -0.14000
C609        C  0.74165088  0.71086707  0.47140730     0.02700
C610        C  0.68181469  0.71710187  0.42661644    -0.26100
H611        H  0.46853703  0.69142080  0.40970348     0.07800
H612        H  0.55931336  0.72165444  0.35692188     0.11400
H613        H  0.57927660  0.66776874  0.62037650     0.11300
H614        H  0.68411584  0.69342822  0.63732269     0.11100
H615        H  0.78663150  0.70387803  0.58145080     0.11600
H616        H  0.68198401  0.72260298  0.36805008     0.13600
C617        C  0.48472945  0.83527023  0.49386105    -0.06500
C618        C  0.49979662  0.81390217  0.56428220    -0.06400
C619        C  0.44978705  0.79601732  0.59800953    -0.24600
C620        C  0.38855869  0.79639349  0.55804217     0.17700
C621        C  0.38350368  0.80776987  0.48139531     0.14900
C622        C  0.43294320  0.82659583  0.44908454    -0.19600
C623        C  0.32467016  0.80583206  0.43993759    -0.21400
C624        C  0.26821037  0.79941677  0.47437990    -0.14000
C625        C  0.26984421  0.79558498  0.54999169     0.02700
C626        C  0.33082144  0.79040535  0.59268836    -0.26100
H627        H  0.54320768  0.81781294  0.59829169     0.07800
H628        H  0.45646124  0.78566262  0.65614100     0.11400
H629        H  0.42327218  0.84098323  0.39307305     0.11300
H630        H  0.32109903  0.81244881  0.38116079     0.11100
H631        H  0.22231971  0.79987447  0.44167425     0.11600
H632        H  0.33259701  0.78564204  0.65144467     0.13600
C633        C  0.49926332  0.98933907  0.15279046    -0.06500
C634        C  0.43848955  0.98125838  0.12170076    -0.06400
C635        C  0.43526359  0.96743764  0.05896412    -0.24600
C636        C  0.49298484  0.96123706  0.02676231     0.17700
C637        C  0.55369227  0.97194028  0.05441315     0.14900
C638        C  0.55622521  0.98677783  0.11692211    -0.19600
C639        C  0.61152247  0.96462240  0.02274257    -0.21400
C640        C  0.61060316  0.94249697  0.97194150    -0.14000
C641        C  0.55170936  0.92833524  0.95158218     0.02700
C642        C  0.49202835  0.94109710  0.97250994    -0.26100
H643        H  0.39384786  0.98377493  0.14838862     0.07800
H644        H  0.38836982  0.95980944  0.03792258     0.11400
H645        H  0.60311941  0.99294307  0.14123317     0.11300
H646        H  0.65833789  0.97295249  0.04228171     0.11100
H647        H  0.65723810  0.93256237  0.95620223     0.11600
H648        H  0.44669013  0.92991103  0.95703824     0.13600
C649        C  0.48679796  0.52151606  0.84957437    -0.06500
C650        C  0.42322933  0.52080490  0.87215522    -0.06400
C651        C  0.40857645  0.53589802  0.93085152    -0.24600
C652        C  0.45805640  0.55086192  0.96831659     0.17700
C653        C  0.52381545  0.54874558  0.94954686     0.14900
C654        C  0.53774148  0.53401136  0.88994403    -0.19600
C655        C  0.57321424  0.56354100  0.98774309    -0.21400
C656        C  0.55567323  0.58434106  0.03739554    -0.14000
C657        C  0.48888281  0.59017487  0.04845194     0.02700
C658        C  0.44162031  0.57067665  0.01968470    -0.26100
H659        H  0.38413849  0.51076023  0.84160982     0.07800
H660        H  0.35813127  0.53705719  0.94523712     0.11400
H661        H  0.58726868  0.53393024  0.87270206     0.11300
H662        H  0.62410993  0.56151285  0.97494519     0.11100
H663        H  0.59247058  0.59957792  0.05924314     0.11600
H664        H  0.39006225  0.57540376  0.02878428     0.13600
C665        C  0.27485358  0.66579202  0.60468387    -0.06500
C666        C  0.30266778  0.69308275  0.55902809    -0.06400
C667        C  0.36863354  0.69913222  0.57381551    -0.24600
C668        C  0.40599225  0.67841411  0.63550136     0.17700
C669        C  0.38192521  0.64671531  0.67259301     0.14900
C670        C  0.31581677  0.64041435  0.65648213    -0.19600
C671        C  0.42023465  0.62571476  0.73336972    -0.21400
C672        C  0.47277063  0.64028023  0.76639433    -0.14000
C673        C  0.48469888  0.67610291  0.73986335     0.02700
C674        C  0.45963720  0.69235508  0.66867736    -0.26100
H675        H  0.27142204  0.71238746  0.51781239     0.07800
H676        H  0.38742635  0.72261240  0.54288671     0.11400
H677        H  0.29411955  0.61910914  0.69116021     0.11300
H678        H  0.40428225  0.60057334  0.76097702     0.11100
H679        H  0.49413365  0.62660285  0.82017865     0.11600
H680        H  0.47108352  0.71935558  0.64646844     0.13600
C681        C  0.74445622  0.85521339  0.38296883    -0.06500
C682        C  0.72199521  0.88562061  0.32948211    -0.06400
C683        C  0.65572633  0.89062439  0.30052510    -0.24600
C684        C  0.61311527  0.86423979  0.32298173     0.17700
C685        C  0.63412572  0.83605258  0.38327734     0.14900
C686        C  0.69949342  0.83247205  0.41459228    -0.19600
C687        C  0.59338809  0.80851616  0.40291961    -0.21400
C688        C  0.53926997  0.80513297  0.35503853    -0.14000
C689        C  0.52602916  0.82935586  0.28837031     0.02700
C690        C  0.55590035  0.86172537  0.27826487    -0.26100
H691        H  0.75679173  0.90331566  0.30507737     0.07800
H692        H  0.64024047  0.91251088  0.25476925     0.11400
H693        H  0.71768690  0.80889332  0.45571719     0.11300
H694        H  0.60758512  0.78746515  0.45040713     0.11100
H695        H  0.51367438  0.78109553  0.36545501     0.11600
H696        H  0.54443122  0.88084001  0.22716210     0.13600
C697        C  0.82923921  0.51703673  0.17721349    -0.06500
C698        C  0.87519691  0.54275678  0.16223614    -0.06400
C699        C  0.85822639  0.57886090  0.16367438    -0.24600
C700        C  0.79499891  0.58965287  0.18009050     0.17700
C701        C  0.75232431  0.56284257  0.20330217     0.14900
C702        C  0.76989319  0.52683891  0.20244801    -0.19600
C703        C  0.69017962  0.57253387  0.22170952    -0.21400
C704        C  0.66848632  0.60831918  0.21385868    -0.14000
C705        C  0.70681520  0.63593700  0.18365668     0.02700
C706        C  0.77172060  0.62642535  0.16943881    -0.26100
H707        H  0.92115051  0.53569810  0.14121333     0.07800
H708        H  0.89258131  0.59852883  0.14695049     0.11400
H709        H  0.73404050  0.50723598  0.21289802     0.11300
H710        H  0.65704483  0.55239031  0.23965656     0.11100
H711        H  0.61890561  0.61397157  0.22782792     0.11600
H712        H  0.80256231  0.64709857  0.14785108     0.13600
C713        C  0.18577653  0.00359814  0.81612609    -0.06500
C714        C  0.24668437  0.00319160  0.78731937    -0.06400
C715        C  0.27901323  0.97073320  0.78004544    -0.24600
C716        C  0.25098585  0.93836479  0.80253019     0.17700
C717        C  0.18664936  0.93890674  0.82472267     0.14900
C718        C  0.15341879  0.97184287  0.82895836    -0.19600
C719        C  0.15942453  0.90633576  0.84861183    -0.21400
C720        C  0.19810666  0.87354503  0.85704145    -0.14000
C721        C  0.26354226  0.87298050  0.83903146     0.02700
C722        C  0.28820357  0.90550850  0.80822983    -0.26100
H723        H  0.27226094  0.02730639  0.77793005     0.07800
H724        H  0.32832548  0.97062378  0.76267087     0.11400
H725        H  0.10668390  0.97202077  0.85258524     0.11300
H726        H  0.10972306  0.90632743  0.86501821     0.11100
H727        H  0.17778401  0.84889234  0.87998912     0.11600
H728        H  0.33837955  0.90561056  0.79307999     0.13600
C729        C  0.00449100  0.04051391  0.68187499    -0.06500
C730        C  0.03480811  0.56797767  0.63754945    -0.06400
C731        C  0.08888968  0.56038861  0.60057895    -0.24600
C732        C  0.11667921  0.52497247  0.60890926     0.17700
C733        C  0.08404035  0.99705248  0.64924615     0.14900
C734        C  0.02761135  0.00474367  0.68337668    -0.19600
C735        C  0.11281244  0.96167705  0.65867154    -0.21400
C736        C  0.17460937  0.95483814  0.63450284    -0.14000
C737        C  0.20899491  0.48287741  0.59832923     0.02700
C738        C  0.17720619  0.51772831  0.58213296    -0.26100
H739        H  0.01793074  0.59572744  0.63590166     0.07800
H740        H  0.11177055  0.58242316  0.56967674     0.11400
H741        H  0.00650437  0.98309878  0.71772727     0.11300
H742        H  0.08929493  0.93952552  0.68822125     0.11100
H743        H  0.19761948  0.92759749  0.64504517     0.11600
H744        H  0.20175617  0.53953960  0.55271355     0.13600
C745        C  0.79566876  0.02267459  0.40867326    -0.06500
C746        C  0.82859655  0.05116698  0.37425569    -0.06400
C747        C  0.89009588  0.54922503  0.34472429    -0.24600
C748        C  0.91823320  0.51369104  0.35438505     0.17700
C749        C  0.88688137  0.98045762  0.39651370     0.14900
C750        C  0.82619774  0.98760983  0.42287152    -0.19600
C751        C  0.91333117  0.94500768  0.40207111    -0.21400
C752        C  0.96549910  0.44192074  0.36302235    -0.14000
C753        C  0.99440048  0.46949165  0.31931698     0.02700
C754        C  0.97340218  0.50546194  0.31892048    -0.26100
H755        H  0.80578233  0.07843385  0.36455737     0.07800
H756        H  0.91360662  0.57115282  0.31446174     0.11400
H757        H  0.80062675  0.96571417  0.45029046     0.11300
H758        H  0.88949196  0.92283978  0.43099999     0.11100
H759        H  0.98062748  0.41410063  0.36321545     0.11600
H760        H  0.99452646  0.52686935  0.28397153     0.13600
C761        C  0.18727968  0.81257964  0.27971445    -0.06500
C762        C  0.19097449  0.78646002  0.23605621    -0.06400
C763        C  0.21395845  0.79473356  0.16819401    -0.24600
C764        C  0.23861082  0.82779661  0.14717316     0.17700
C765        C  0.25450375  0.84831593  0.20035482     0.14900
C766        C  0.22649404  0.84130503  0.26671126    -0.19600
C767        C  0.28743552  0.87901154  0.18021420    -0.21400
C768        C  0.28834837  0.89337389  0.10630354    -0.14000
C769        C  0.24605778  0.88035400  0.05596565     0.02700
C770        C  0.23529818  0.84404001  0.07338816    -0.26100
H771        H  0.16578939  0.76227351  0.24834062     0.07800
H772        H  0.20520798  0.77746489  0.12982701     0.11400
H773        H  0.22718184  0.86060791  0.30180803     0.11300
H774        H  0.30509541  0.89393128  0.22013831     0.11100
H775        H  0.30564457  0.91974463  0.09181309     0.11600
H776        H  0.20935375  0.83186775  0.03318394     0.13600
C777        C  0.82602851  0.67658041  0.72858683    -0.06500
C778        C  0.78879120  0.64797470  0.71966457    -0.06400
C779        C  0.74422035  0.63626317  0.76966074    -0.24600
C780        C  0.74134672  0.65128895  0.83169327     0.17700
C781        C  0.77377202  0.68240221  0.83657757     0.14900
C782        C  0.81230864  0.69624429  0.78207681    -0.19600
C783        C  0.77931288  0.69406300  0.90283441    -0.21400
C784        C  0.77095590  0.66959872  0.96638567    -0.14000
C785        C  0.75536208  0.63494587  0.96074815     0.02700
C786        C  0.72082988  0.63136015  0.89505060    -0.26100
H787        H  0.79722163  0.63331328  0.67712037     0.07800
H788        H  0.71956425  0.61247106  0.76513788     0.11400
H789        H  0.83986579  0.71890569  0.78819056     0.11300
H790        H  0.80190500  0.71848385  0.90729388     0.11100
H791        H  0.79129509  0.67474827  0.01786889     0.11600
H792        H  0.70059094  0.60611872  0.89204106     0.13600
loop_ 
_geom_bond_atom_site_label_1 
_geom_bond_atom_site_label_2 
_geom_bond_distance 
_geom_bond_site_symmetry_2 
_ccdc_geom_bond_type 
C1            C2   1.544       .  S
C1            C7   1.558       .  S
C1            C5   1.556       .  S
C1          C135   1.574       .  S
C2            H9   1.086       .  S
C2            C3   1.371       .  D
C3            C4   1.587       .  S
C3           C45   1.536       .  S
C4            C8   1.571       .  S
C4            C6   1.590       .  S
C4           H10   1.110       .  S
C5           H11   1.086       .  S
C5            C6   1.380       .  D
C6           C90   1.554       .  S
C7           H12   1.086       .  S
C7            C8   1.377       .  D
C8          C168   1.535       .  S
C13          C14   1.557       .  S
C13          C19   1.538       .  S
C13          C17   1.545       .  S
C13          C55   1.573       .  S
C14          H21   1.085       .  S
C14          C15   1.388       .  D
C15          C16   1.589       .  S
C15         C100   1.555       .  S
C16          C20   1.601       .  S
C16          C18   1.588       .  S
C16          H22   1.110       .  S
C17          H23   1.085       .  S
C17          C18   1.360       .  D
C18         C204   1.545       .  S
C19          H24   1.086       .  S
C19          C20   1.374       .  D
C20         C145   1.544       .  S
N25          N26   1.317       .  A
N25          N31   1.321       .  A
N25        Mn450   2.223   1_655  S
N26          C33   1.347       .  A
N27          N29   1.319       .  A
N27          N28   1.318       .  A
N27         Mn43   2.222       .  S
N28          C34   1.350       .  A
N29          N30   1.322       .  A
N29         Mn54   2.212   1_655  S
N30          C34   1.361       .  A
N31          N32   1.323       .  A
N31        Mn439   2.201       .  S
N32          C33   1.355       .  A
C33         C333   1.473   1_655  S
C34         C389   1.480       .  S
N35          N41   1.319       .  A
N35          N36   1.324       .  A
N35        Mn461   2.218       .  S
N36          C44   1.349       .  A
N37          N38   1.332       .  A
N37          N39   1.319       .  A
N37        Mn439   2.223       .  S
N38          C45   1.356       .  A
N39          N40   1.338       .  A
N39         Mn65   2.308   1_556  S
N40          C45   1.371       .  A
N41          N42   1.314       .  A
N41         Mn43   2.175   1_564  S
N42          C44   1.342       .  A
Mn43        N427   2.205       .  S
Mn43        N433   2.224   1_545  S
Mn43        Cl67   2.542       .  S
C44         C301   1.465   1_565  S
N46          N47   1.344       .  A
N46          N52   1.315       .  A
N46         Mn54   2.304   1_554  S
N47          C55   1.374       .  A
N48          N50   1.314       .  A
N48          N49   1.311       .  A
N48         Mn66   2.164   1_556  S
N49          C56   1.341       .  A
N50          N51   1.326       .  A
N50        Mn450   2.213       .  S
N51          C56   1.353       .  A
N52          N53   1.319       .  A
N52        Mn462   2.195       .  S
N53          C55   1.352       .  A
Mn54        N421   2.220   1_455  S
Mn54        N446   2.217       .  S
Mn54        Cl67   2.573   1_455  S
C56         C317   1.461       .  S
N57          N58   1.328       .  A
N57          N63   1.320       .  A
N57         Mn65   2.237   1_455  S
N58          C68   1.367       .  A
N59          N60   1.322       .  A
N59          N61   1.317       .  A
N59        Mn462   2.186   1_565  S
N60          C69   1.353       .  A
N61          N62   1.317       .  A
N61        Mn461   2.219   1_455  S
N62          C69   1.349       .  A
N63          N64   1.312       .  A
N63         Mn66   2.200       .  S
N64          C68   1.344       .  A
Mn65        N431   2.221       .  S
Mn65        N457   2.220   1_655  S
Mn65       Cl463   2.567   1_554  S
Mn66        N448   2.193       .  S
Mn66        N455   2.183       .  S
Mn66       Cl463   2.528   1_454  S
Cl67       Mn461   2.569   1_546  S
Cl67       Mn462   2.527   1_656  S
C68         C373   1.485       .  S
C69         C357   1.471   1_455  S
N70          N71   1.300       .  A
N70          N76   1.319       .  A
N70         Mn99   2.159       .  S
N71          C78   1.332       .  A
N72          N74   1.321       .  A
N72          N73   1.316       .  A
N72         Mn88   2.246       .  S
N73          C79   1.352       .  A
N74          N75   1.321       .  A
N74         Mn99   2.168       .  S
N75          C79   1.352       .  A
N76          N77   1.341       .  A
N76         Mn88   2.270       .  S
N77          C78   1.374       .  A
C78         C309   1.494       .  S
C79         C293   1.465       .  S
N80          N86   1.314       .  A
N80          N81   1.323       .  A
N80        Mn110   2.198       .  S
N81          C89   1.356       .  A
N82          N83   1.343       .  A
N82          N84   1.326       .  A
N82         Mn88   2.292   1_556  S
N83          C90   1.368       .  A
N84          N85   1.336       .  A
N84        Mn110   2.258       .  S
N85          C90   1.357       .  A
N86          N87   1.311   1_556  A
N86         Mn88   2.172   1_556  S
N87          C89   1.346   1_554  A
Mn88       Cl112   2.565       .  S
C89         C245   1.453       .  S
N91          N92   1.339       .  A
N91          N97   1.323       .  A
N91         Mn99   2.252       .  S
N92         C100   1.359       .  A
N93          N95   1.311       .  A
N93          N94   1.311   1_554  A
N93        Mn111   2.174   1_554  S
N94         C101   1.350   1_556  A
N95          N96   1.319       .  A
N95         Mn99   2.170       .  S
N96         C101   1.350       .  A
N97          N98   1.338       .  A
N97        Mn111   2.277   1_554  S
N98         C100   1.365       .  A
Mn99       Cl112   2.563       .  S
C101        C261   1.446       .  S
N102        N103   1.327       .  A
N102        N108   1.321       .  A
N102       Mn110   2.201       .  S
N103        C113   1.356       .  A
N104        N105   1.330       .  A
N104        N106   1.323       .  A
N104       Mn111   2.236       .  S
N105        C114   1.362       .  A
N106        N107   1.311       .  A
N106       Mn110   2.203       .  S
N107        C114   1.343       .  A
N108        N109   1.314       .  A
N108       Mn111   2.220       .  S
N109        C113   1.347       .  A
Mn110      Cl112   2.563   1_556  S
Mn111      Cl112   2.564   1_556  S
C113        C277   1.468       .  S
C114        C325   1.481       .  S
N115        N116   1.318       .  A
N115        N121   1.318       .  A
N115       Mn144   2.223       .  S
N116        C123   1.352       .  A
N117        N119   1.318       .  A
N117        N118   1.333       .  A
N117       Mn133   2.268       .  S
N118        C124   1.365       .  A
N119        N120   1.301       .  A
N119       Mn144   2.118   1_455  S
N120        C124   1.332       .  A
N121        N122   1.320       .  A
N121       Mn133   2.171   1_655  S
N122        C123   1.345       .  A
C123        C285   1.455       .  S
C124        C365   1.475       .  S
N125        N131   1.314       .  A
N125        N126   1.322       .  A
N125       Mn155   2.181       .  S
N126        C134   1.348       .  A
N127        N128   1.334       .  A
N127        N129   1.317       .  A
N127       Mn133   2.273   1_655  S
N128        C135   1.366       .  A
N129        N130   1.335       .  A
N129       Mn155   2.285   1_655  S
N130        C135   1.367       .  A
N131        N132   1.312       .  A
N131       Mn133   2.180       .  S
N132        C134   1.348       .  A
Mn133      Cl157   2.558       .  S
C134        C229   1.461       .  S
N136        N137   1.336       .  A
N136        N142   1.315       .  A
N136       Mn144   2.292   1_455  S
N137        C145   1.368       .  A
N138        N140   1.314       .  A
N138        N139   1.315       .  A
N138       Mn156   2.190   1_655  S
N139        C146   1.347       .  A
N140        N141   1.321       .  A
N140       Mn144   2.166       .  S
N141        C146   1.345       .  A
N142        N143   1.337       .  A
N142       Mn156   2.270       .  S
N143        C145   1.367       .  A
Mn144      Cl157   2.545   1_655  S
C146        C213   1.460       .  S
N147        N148   1.312       .  A
N147        N153   1.318       .  A
N147       Mn155   2.156   1_655  S
N148        C158   1.344       .  A
N149        N150   1.320       .  A
N149        N151   1.319       .  A
N149       Mn156   2.168       .  S
N150        C159   1.345       .  A
N151        N152   1.319       .  A
N151       Mn155   2.241       .  S
N152        C159   1.353       .  A
N153        N154   1.325       .  A
N153       Mn156   2.236   1_655  S
N154        C158   1.356       .  A
Mn155      Cl157   2.544       .  S
Mn156      Cl157   2.561       .  S
C158        C381   1.471       .  S
C159        C269   1.460       .  S
N160        N161   1.332       .  A
N160        N166   1.316       .  A
N160       Mn189   2.255       .  S
N161        C168   1.360       .  A
N162        N164   1.313   1_545  A
N162        N163   1.313       .  A
N162       Mn178   2.173       .  S
N163        C169   1.348       .  A
N164        N165   1.318       .  A
N164       Mn585   2.167       .  S
N165        C169   1.350   1_565  A
N166        N167   1.337       .  A
N166       Mn574   2.284       .  S
N167        C168   1.369       .  A
C169        C253   1.449       .  S
N170        N176   1.316       .  A
N170        N171   1.309       .  A
N170       Mn200   2.144       .  S
N171        C179   1.343       .  A
N172        N173   1.316       .  A
N172        N174   1.320       .  A
N172       Mn574   2.171       .  S
N173        C180   1.344       .  A
N174        N175   1.322       .  A
N174       Mn596   2.242       .  S
N175        C180   1.354       .  A
N176        N177   1.325       .  A
N176       Mn178   2.246       .  S
N177        C179   1.364       .  A
Mn178       N562   2.276   1_545  S
Mn178       N568   2.167       .  S
Mn178      Cl202   2.552       .  S
C179        C205   1.474       .  S
C180        C349   1.461       .  S
N181        N182   1.324       .  A
N181        N187   1.318       .  A
N181       Mn585   2.246       .  S
N182        C190   1.356       .  A
N183        N185   1.315       .  A
N183        N184   1.325       .  A
N183       Mn201   2.248       .  S
N184        C191   1.365       .  A
N185        N186   1.308       .  A
N185       Mn189   2.140       .  S
N186        C191   1.342       .  A
N187        N188   1.317       .  A
N187       Mn597   2.165       .  S
N188        C190   1.345       .  A
Mn189       N560   2.171       .  S
Mn189       N577   2.247       .  S
Mn189      Cl598   2.547       .  S
C190        C341   1.466       .  S
C191        C221   1.472       .  S
N192        N193   1.326       .  A
N192        N198   1.313       .  A
N192       Mn596   2.203       .  S
N193        C203   1.357       .  A
N194        N195   1.331       .  A
N194        N196   1.316       .  A
N194       Mn597   2.290   1_545  S
N195        C204   1.370       .  A
N196        N197   1.339       .  A
N196       Mn200   2.259       .  S
N197        C204   1.364       .  A
N198        N199   1.309       .  A
N198       Mn201   2.161       .  S
N199        C203   1.344       .  A
Mn200       N570   2.241       .  S
Mn200       N588   2.198       .  S
Mn200      Cl202   2.553       .  S
Mn201       N583   2.161       .  S
Mn201       N590   2.285       .  S
Mn201      Cl598   2.547       .  S
Cl202      Mn585   2.546   1_545  S
Cl202      Mn597   2.546   1_545  S
C203        C237   1.460       .  S
C205        C206   1.411       .  A
C205        C210   1.396       .  A
C206        C207   1.394       .  A
C206        H215   1.084       .  S
C207        C208   1.397       .  A
C207        H216   1.084       .  S
C208        C214   1.401       .  A
C208        C209   1.418       .  A
C209        C211   1.392       .  A
C209        C210   1.396       .  A
C210        H217   1.084       .  S
C211        C212   1.387       .  A
C211        H218   1.082       .  S
C212        C213   1.401       .  A
C212        H219   1.076       .  S
C213        C214   1.397       .  A
C214        H220   1.084       .  S
C221        C222   1.412       .  A
C221        C226   1.393       .  A
C222        C223   1.396       .  A
C222        H231   1.083       .  S
C223        C224   1.398       .  A
C223        H232   1.084       .  S
C224        C230   1.405       .  A
C224        C225   1.418       .  A
C225        C227   1.387       .  A
C225        C226   1.392       .  A
C226        H233   1.086       .  S
C227        C228   1.382       .  A
C227        H234   1.083       .  S
C228        C229   1.403       .  A
C228        H235   1.071       .  S
C229        C230   1.399       .  A
C230        H236   1.085       .  S
C237        C238   1.405       .  A
C237        C242   1.399       .  A
C238        C239   1.386       .  A
C238        H247   1.084       .  S
C239        C240   1.395       .  A
C239        H248   1.083       .  S
C240        C246   1.395   1_554  A
C240        C241   1.419       .  A
C241        C243   1.401       .  A
C241        C242   1.404       .  A
C242        H249   1.084       .  S
C243        C244   1.396   1_554  A
C243        H250   1.084       .  S
C244        C245   1.405       .  A
C244        H251   1.084       .  S
C245        C246   1.394       .  A
C246        H252   1.086       .  S
C253        C254   1.397       .  A
C253        C258   1.399       .  A
C254        C255   1.389       .  A
C254        H263   1.076       .  S
C255        C256   1.400       .  A
C255        H264   1.085       .  S
C256        C262   1.389   1_556  A
C256        C257   1.415       .  A
C257        C259   1.401       .  A
C257        C258   1.391       .  A
C258        H265   1.086       .  S
C259        C260   1.393   1_556  A
C259        H266   1.085       .  S
C260        C261   1.402       .  A
C260        H267   1.083       .  S
C261        C262   1.395       .  A
C262        H268   1.086       .  S
C269        C270   1.402       .  A
C269        C274   1.400       .  A
C270        C271   1.393       .  A
C270        H279   1.084       .  S
C271        C272   1.399       .  A
C271        H280   1.083       .  S
C272        C278   1.401       .  A
C272        C273   1.417       .  A
C273        C275   1.400       .  A
C273        C274   1.402       .  A
C274        H281   1.085       .  S
C275        C276   1.396       .  A
C275        H282   1.085       .  S
C276        C277   1.406       .  A
C276        H283   1.084       .  S
C277        C278   1.399       .  A
C278        H284   1.083       .  S
C285        C286   1.400       .  A
C285        C290   1.398       .  A
C286        C287   1.396       .  A
C286        H295   1.083       .  S
C287        C288   1.403       .  A
C287        H296   1.084       .  S
C288        C294   1.399       .  A
C288        C289   1.416       .  A
C289        C291   1.399       .  A
C289        C290   1.395       .  A
C290        H297   1.085       .  S
C291        C292   1.394       .  A
C291        H298   1.082       .  S
C292        C293   1.400       .  A
C292        H299   1.081       .  S
C293        C294   1.403       .  A
C294        H300   1.085       .  S
C301        C302   1.411       .  A
C301        C306   1.389       .  A
C302        C303   1.404       .  A
C302        H311   1.084       .  S
C303        C304   1.402       .  A
C303        H312   1.083       .  S
C304        C310   1.420       .  A
C304        C305   1.419       .  A
C305        C307   1.384       .  A
C305        C306   1.399       .  A
C306        H313   1.085       .  S
C307        C308   1.380       .  A
C307        H314   1.083       .  S
C308        C309   1.417       .  A
C308        H315   1.082       .  S
C309        C310   1.408       .  A
C310        H316   1.083       .  S
C317        C318   1.396       .  A
C317        C322   1.412       .  A
C318        C319   1.395       .  A
C318        H327   1.083       .  S
C319        C320   1.404       .  A
C319        H328   1.082       .  S
C320        C326   1.396       .  A
C320        C321   1.409       .  A
C321        C323   1.408       .  A
C321        C322   1.404       .  A
C322        H329   1.085       .  S
C323        C324   1.404       .  A
C323        H330   1.083       .  S
C324        C325   1.403       .  A
C324        H331   1.083       .  S
C325        C326   1.410       .  A
C326        H332   1.084       .  S
C333        C338   1.407       .  A
C333        C730   1.404       .  A
C334        C335   1.396       .  A
C334        C729   1.404       .  A
C334        H343   1.084       .  S
C335        C336   1.402       .  A
C335        H344   1.084       .  S
C336        C342   1.402       .  A
C336        C733   1.415   1_545  A
C337        C339   1.405       .  A
C337        C338   1.405       .  A
C337        C732   1.414       .  A
C338        H345   1.085       .  S
C339        C340   1.400       .  A
C339        H346   1.084       .  S
C340        C737   1.400       .  A
C340        H347   1.083       .  S
C341        C342   1.402   1_565  A
C341        C736   1.400       .  A
C342        H348   1.085       .  S
C349        C350   1.400       .  A
C349        C354   1.400       .  A
C350        C747   1.399       .  A
C350        H359   1.083       .  S
C351        C352   1.404       .  A
C351        C746   1.398       .  A
C351        H360   1.083       .  S
C352        C358   1.403       .  A
C352        C749   1.415   1_545  A
C353        C355   1.401       .  A
C353        C354   1.398       .  A
C353        C748   1.414       .  A
C354        H361   1.085       .  S
C355        C752   1.395       .  A
C355        H362   1.084       .  S
C356        C357   1.404       .  A
C356        C751   1.395       .  A
C356        H363   1.084       .  S
C357        C358   1.406   1_565  A
C358        H364   1.085       .  S
C365        C366   1.414       .  A
C365        C370   1.399       .  A
C366        C367   1.387       .  A
C366        H375   1.084       .  S
C367        C368   1.390       .  A
C367        H376   1.083       .  S
C368        C374   1.402       .  A
C368        C369   1.419       .  A
C369        C371   1.397       .  A
C369        C370   1.406       .  A
C370        H377   1.084       .  S
C371        C372   1.397       .  A
C371        H378   1.083       .  S
C372        C373   1.413       .  A
C372        H379   1.083       .  S
C373        C374   1.398       .  A
C374        H380   1.084       .  S
C381        C382   1.403       .  A
C381        C386   1.406       .  A
C382        C383   1.398       .  A
C382        H391   1.083       .  S
C383        C384   1.404       .  A
C383        H392   1.083       .  S
C384        C390   1.400       .  A
C384        C385   1.415       .  A
C385        C387   1.405       .  A
C385        C386   1.393       .  A
C386        H393   1.084       .  S
C387        C388   1.399       .  A
C387        H394   1.083       .  S
C388        C389   1.404       .  A
C388        H395   1.082   1_556  S
C389        C390   1.407       .  A
C390        H396   1.085       .  S
C397        C398   1.543       .  S
C397        C403   1.557       .  S
C397        C401   1.555       .  S
C397        C531   1.573       .  S
C398        H405   1.086       .  S
C398        C399   1.370       .  D
C399        C400   1.588       .  S
C399        C441   1.537       .  S
C400        C404   1.571       .  S
C400        C402   1.588       .  S
C400        H406   1.110       .  S
C401        H407   1.086       .  S
C401        C402   1.379       .  D
C402        C486   1.551       .  S
C403        H408   1.086       .  S
C403        C404   1.377       .  D
C404        C564   1.535       .  S
C409        C410   1.556       .  S
C409        C415   1.537       .  S
C409        C413   1.547       .  S
C409        C451   1.573       .  S
C410        H417   1.085       .  S
C410        C411   1.387       .  D
C411        C412   1.587       .  S
C411        C496   1.554       .  S
C412        C416   1.601       .  S
C412        C414   1.586       .  S
C412        H418   1.110       .  S
C413        H419   1.085       .  S
C413        C414   1.361       .  D
C414        C600   1.544       .  S
C415        H420   1.086       .  S
C415        C416   1.374       .  D
C416        C541   1.542       .  S
N421        N422   1.316       .  A
N421        N427   1.321       .  A
N422        C429   1.346       .  A
N423        N425   1.319       .  A
N423        N424   1.317       .  A
N423       Mn439   2.225       .  S
N424        C430   1.351       .  A
N425        N426   1.322       .  A
N425       Mn450   2.210   1_655  S
N426        C430   1.361       .  A
N427        N428   1.324       .  A
N428        C429   1.355       .  A
C429        C729   1.473   1_655  S
C430        C785   1.480       .  S
N431        N437   1.318       .  A
N431        N432   1.324       .  A
N432        C440   1.349       .  A
N433        N434   1.332       .  A
N433        N435   1.318       .  A
N434        C441   1.356       .  A
N435        N436   1.338       .  A
N435       Mn461   2.307   1_556  S
N436        C441   1.371       .  A
N437        N438   1.313       .  A
N437       Mn439   2.171   1_554  S
N438        C440   1.341       .  A
Mn439      Cl463   2.543       .  S
C440        C697   1.464       .  S
N442        N443   1.344       .  A
N442        N448   1.314       .  A
N442       Mn450   2.306   1_554  S
N443        C451   1.375       .  A
N444        N446   1.314       .  A
N444        N445   1.311       .  A
N444       Mn462   2.166   1_556  S
N445        C452   1.342       .  A
N446        N447   1.326       .  A
N447        C452   1.354       .  A
N448        N449   1.319       .  A
N449        C451   1.352       .  A
Mn450      Cl463   2.574   1_455  S
C452        C713   1.464       .  S
N453        N454   1.327       .  A
N453        N459   1.320       .  A
N453       Mn461   2.232   1_455  S
N454        C464   1.366       .  A
N455        N456   1.321       .  A
N455        N457   1.316       .  A
N456        C465   1.352       .  A
N457        N458   1.318       .  A
N458        C465   1.349       .  A
N459        N460   1.312       .  A
N459       Mn462   2.201   1_565  S
N460        C464   1.344       .  A
C464        C769   1.484       .  S
C465        C753   1.470   1_455  S
N466        N467   1.301       .  A
N466        N472   1.319       .  A
N466       Mn495   2.162       .  S
N467        C474   1.333       .  A
N468        N470   1.321       .  A
N468        N469   1.314       .  A
N468       Mn484   2.239       .  S
N469        C475   1.350       .  A
N470        N471   1.322       .  A
N470       Mn495   2.174       .  S
N471        C475   1.354       .  A
N472        N473   1.339       .  A
N472       Mn484   2.262       .  S
N473        C474   1.372       .  A
C474        C705   1.491       .  S
C475        C689   1.464       .  S
N476        N482   1.313       .  A
N476        N477   1.324       .  A
N476       Mn506   2.200       .  S
N477        C485   1.357       .  A
N478        N479   1.342       .  A
N478        N480   1.326       .  A
N478       Mn484   2.285   1_556  S
N479        C486   1.366       .  A
N480        N481   1.335       .  A
N480       Mn506   2.258       .  S
N481        C486   1.357       .  A
N482        N483   1.310   1_556  A
N482       Mn484   2.167   1_556  S
N483        C485   1.346   1_554  A
Mn484      Cl508   2.557       .  S
C485        C641   1.453       .  S
N487        N488   1.340       .  A
N487        N493   1.323       .  A
N487       Mn495   2.256       .  S
N488        C496   1.360       .  A
N489        N491   1.311       .  A
N489        N490   1.311       .  A
N489       Mn507   2.177   1_554  S
N490        C497   1.350       .  A
N491        N492   1.320       .  A
N491       Mn495   2.171       .  S
N492        C497   1.350       .  A
N493        N494   1.337       .  A
N493       Mn507   2.269   1_554  S
N494        C496   1.364       .  A
Mn495      Cl508   2.569       .  S
C497        C657   1.447       .  S
N498        N499   1.328       .  A
N498        N504   1.321       .  A
N498       Mn506   2.207       .  S
N499        C509   1.357       .  A
N500        N501   1.330       .  A
N500        N502   1.323       .  A
N500       Mn507   2.239       .  S
N501        C510   1.363       .  A
N502        N503   1.312       .  A
N502       Mn506   2.201       .  S
N503        C510   1.343       .  A
N504        N505   1.312       .  A
N504       Mn507   2.213       .  S
N505        C509   1.345       .  A
Mn506      Cl508   2.568   1_556  S
Mn507      Cl508   2.557   1_556  S
C509        C673   1.469       .  S
C510        C721   1.483       .  S
N511        N512   1.317       .  A
N511        N517   1.318       .  A
N511       Mn540   2.218       .  S
N512        C519   1.352       .  A
N513        N515   1.318       .  A
N513        N514   1.334       .  A
N513       Mn529   2.270       .  S
N514        C520   1.366       .  A
N515        N516   1.301       .  A
N515       Mn540   2.117   1_455  S
N516        C520   1.332       .  A
N517        N518   1.320       .  A
N517       Mn529   2.172   1_655  S
N518        C519   1.345       .  A
C519        C681   1.454       .  S
C520        C761   1.475       .  S
N521        N527   1.314       .  A
N521        N522   1.322       .  A
N521       Mn551   2.182       .  S
N522        C530   1.348       .  A
N523        N524   1.334       .  A
N523        N525   1.317       .  A
N523       Mn529   2.273   1_655  S
N524        C531   1.366       .  A
N525        N526   1.335       .  A
N525       Mn551   2.282   1_655  S
N526        C531   1.366       .  A
N527        N528   1.312       .  A
N527       Mn529   2.182       .  S
N528        C530   1.348       .  A
Mn529      Cl553   2.558       .  S
C530        C625   1.462       .  S
N532        N533   1.336       .  A
N532        N538   1.315       .  A
N532       Mn540   2.290   1_455  S
N533        C541   1.368       .  A
N534        N536   1.314       .  A
N534        N535   1.315       .  A
N534       Mn552   2.195   1_655  S
N535        C542   1.348       .  A
N536        N537   1.322       .  A
N536       Mn540   2.170       .  S
N537        C542   1.346       .  A
N538        N539   1.336       .  A
N538       Mn552   2.266       .  S
N539        C541   1.366       .  A
Mn540      Cl553   2.544   1_655  S
C542        C609   1.463       .  S
N543        N544   1.311       .  A
N543        N549   1.318       .  A
N543       Mn551   2.154   1_655  S
N544        C554   1.344       .  A
N545        N546   1.321       .  A
N545        N547   1.319       .  A
N545       Mn552   2.172       .  S
N546        C555   1.346       .  A
N547        N548   1.319       .  A
N547       Mn551   2.239       .  S
N548        C555   1.353       .  A
N549        N550   1.324       .  A
N549       Mn552   2.233   1_655  S
N550        C554   1.356       .  A
Mn551      Cl553   2.543       .  S
Mn552      Cl553   2.561       .  S
C554        C777   1.469       .  S
C555        C665   1.461       .  S
N556        N557   1.333       .  A
N556        N562   1.316       .  A
N556       Mn585   2.261       .  S
N557        C564   1.362       .  A
N558        N560   1.313       .  A
N558        N559   1.313       .  A
N558       Mn574   2.175       .  S
N559        C565   1.348       .  A
N560        N561   1.318       .  A
N561        C565   1.350       .  A
N562        N563   1.335       .  A
N563        C564   1.367       .  A
C565        C649   1.451       .  S
N566        N572   1.317       .  A
N566        N567   1.309       .  A
N566       Mn596   2.147       .  S
N567        C575   1.343       .  A
N568        N569   1.316       .  A
N568        N570   1.320       .  A
N569        C576   1.344       .  A
N570        N571   1.322       .  A
N571        C576   1.355       .  A
N572        N573   1.325       .  A
N572       Mn574   2.249       .  S
N573        C575   1.365       .  A
Mn574      Cl598   2.554       .  S
C575        C601   1.475       .  S
C576        C745   1.460       .  S
N577        N578   1.324       .  A
N577        N583   1.318       .  A
N578        C586   1.357       .  A
N579        N581   1.316       .  A
N579        N580   1.326       .  A
N579       Mn597   2.252       .  S
N580        C587   1.366       .  A
N581        N582   1.308       .  A
N581       Mn585   2.141       .  S
N582        C587   1.342       .  A
N583        N584   1.316       .  A
N584        C586   1.344       .  A
C586        C737   1.466       .  S
C587        C617   1.473       .  S
N588        N589   1.325       .  A
N588        N594   1.313   1_545  A
N589        C599   1.356   1_545  A
N590        N591   1.331       .  A
N590        N592   1.315       .  A
N591        C600   1.369       .  A
N592        N593   1.339       .  A
N592       Mn596   2.261       .  S
N593        C600   1.365       .  A
N594        N595   1.310       .  A
N594       Mn597   2.163       .  S
N595        C599   1.345       .  A
Mn596      Cl598   2.554       .  S
C599        C633   1.460       .  S
C601        C602   1.411       .  A
C601        C606   1.396       .  A
C602        C603   1.395       .  A
C602        H611   1.084       .  S
C603        C604   1.398       .  A
C603        H612   1.084       .  S
C604        C610   1.403       .  A
C604        C605   1.418       .  A
C605        C607   1.392       .  A
C605        C606   1.396       .  A
C606        H613   1.084       .  S
C607        C608   1.387       .  A
C607        H614   1.082       .  S
C608        C609   1.402       .  A
C608        H615   1.076       .  S
C609        C610   1.399       .  A
C610        H616   1.084       .  S
C617        C618   1.412       .  A
C617        C622   1.394       .  A
C618        C619   1.396       .  A
C618        H627   1.084       .  S
C619        C620   1.398       .  A
C619        H628   1.084       .  S
C620        C626   1.405       .  A
C620        C621   1.418       .  A
C621        C623   1.388       .  A
C621        C622   1.393       .  A
C622        H629   1.085       .  S
C623        C624   1.382       .  A
C623        H630   1.083       .  S
C624        C625   1.403       .  A
C624        H631   1.071       .  S
C625        C626   1.400       .  A
C626        H632   1.085       .  S
C633        C634   1.404       .  A
C633        C638   1.399       .  A
C634        C635   1.386       .  A
C634        H643   1.084       .  S
C635        C636   1.395       .  A
C635        H644   1.084       .  S
C636        C642   1.395   1_554  A
C636        C637   1.419       .  A
C637        C639   1.400       .  A
C637        C638   1.404       .  A
C638        H645   1.085       .  S
C639        C640   1.396   1_554  A
C639        H646   1.084       .  S
C640        C641   1.405       .  A
C640        H647   1.084       .  S
C641        C642   1.394       .  A
C642        H648   1.086       .  S
C649        C650   1.397       .  A
C649        C654   1.401       .  A
C650        C651   1.389       .  A
C650        H659   1.079       .  S
C651        C652   1.400       .  A
C651        H660   1.085       .  S
C652        C658   1.389   1_556  A
C652        C653   1.415       .  A
C653        C655   1.403       .  A
C653        C654   1.393       .  A
C654        H661   1.086       .  S
C655        C656   1.394   1_556  A
C655        H662   1.085       .  S
C656        C657   1.402       .  A
C656        H663   1.083       .  S
C657        C658   1.395       .  A
C658        H664   1.086       .  S
C665        C666   1.402       .  A
C665        C670   1.400       .  A
C666        C667   1.393       .  A
C666        H675   1.084       .  S
C667        C668   1.399       .  A
C667        H676   1.083       .  S
C668        C674   1.402       .  A
C668        C669   1.417       .  A
C669        C671   1.400       .  A
C669        C670   1.402       .  A
C670        H677   1.085       .  S
C671        C672   1.396       .  A
C671        H678   1.085       .  S
C672        C673   1.407       .  A
C672        H679   1.084       .  S
C673        C674   1.399       .  A
C674        H680   1.084       .  S
C681        C682   1.400       .  A
C681        C686   1.398       .  A
C682        C683   1.396       .  A
C682        H691   1.084       .  S
C683        C684   1.403       .  A
C683        H692   1.084       .  S
C684        C690   1.399       .  A
C684        C685   1.416       .  A
C685        C687   1.399       .  A
C685        C686   1.395       .  A
C686        H693   1.085       .  S
C687        C688   1.393       .  A
C687        H694   1.082       .  S
C688        C689   1.400       .  A
C688        H695   1.081       .  S
C689        C690   1.404       .  A
C690        H696   1.085       .  S
C697        C698   1.411       .  A
C697        C702   1.389       .  A
C698        C699   1.403       .  A
C698        H707   1.084       .  S
C699        C700   1.402       .  A
C699        H708   1.084       .  S
C700        C706   1.419       .  A
C700        C701   1.419       .  A
C701        C703   1.384       .  A
C701        C702   1.399       .  A
C702        H709   1.085       .  S
C703        C704   1.380       .  A
C703        H710   1.083       .  S
C704        C705   1.416       .  A
C704        H711   1.082       .  S
C705        C706   1.407       .  A
C706        H712   1.083       .  S
C713        C714   1.396       .  A
C713        C718   1.411   1_545  A
C714        C715   1.397   1_545  A
C714        H723   1.082       .  S
C715        C716   1.404       .  A
C715        H724   1.083       .  S
C716        C722   1.398       .  A
C716        C717   1.409       .  A
C717        C719   1.407       .  A
C717        C718   1.404       .  A
C718        H725   1.085       .  S
C719        C720   1.404       .  A
C719        H726   1.083       .  S
C720        C721   1.403       .  A
C720        H727   1.083       .  S
C721        C722   1.411       .  A
C722        H728   1.084       .  S
C729        C734   1.406       .  A
C730        C731   1.396       .  A
C730        H739   1.083       .  S
C731        C732   1.401       .  A
C731        H740   1.084       .  S
C732        C738   1.401       .  A
C733        C735   1.404       .  A
C733        C734   1.405   1_565  A
C734        H741   1.085   1_545  S
C735        C736   1.399       .  A
C735        H742   1.084       .  S
C736        H743   1.083       .  S
C737        C738   1.401       .  A
C738        H744   1.086       .  S
C745        C746   1.399       .  A
C745        C750   1.400   1_545  A
C746        H755   1.083       .  S
C747        C748   1.405       .  A
C747        H756   1.083       .  S
C748        C754   1.403       .  A
C749        C751   1.401       .  A
C749        C750   1.399       .  A
C750        H757   1.085       .  S
C751        H758   1.083       .  S
C752        C753   1.403       .  A
C752        H759   1.083       .  S
C753        C754   1.407       .  A
C754        H760   1.085       .  S
C761        C762   1.414       .  A
C761        C766   1.398       .  A
C762        C763   1.387       .  A
C762        H771   1.084       .  S
C763        C764   1.390       .  A
C763        H772   1.083       .  S
C764        C770   1.402       .  A
C764        C765   1.419       .  A
C765        C767   1.397       .  A
C765        C766   1.406       .  A
C766        H773   1.083       .  S
C767        C768   1.397       .  A
C767        H774   1.083       .  S
C768        C769   1.413       .  A
C768        H775   1.083       .  S
C769        C770   1.399       .  A
C770        H776   1.084       .  S
C777        C778   1.402       .  A
C777        C782   1.406       .  A
C778        C779   1.398       .  A
C778        H787   1.083       .  S
C779        C780   1.405       .  A
C779        H788   1.083       .  S
C780        C786   1.399       .  A
C780        C781   1.415       .  A
C781        C783   1.405       .  A
C781        C782   1.392       .  A
C782        H789   1.084       .  S
C783        C784   1.399       .  A
C783        H790   1.084       .  S
C784        C785   1.405       .  A
C784        H791   1.082   1_556  S
C785        C786   1.407       .  A
C786        H792   1.085       .  S
