geometry optimzed in LAMMPS
_audit_creation_date              2020-12-01 
_audit_creation_method            'lammps2cif' 
_symmetry_space_group_name_H-M    'P1' 
_symmetry_Int_Tables_number       1 
_symmetry_cell_setting            triclinic 
loop_ 
_symmetry_equiv_pos_as_xyz 
  x,y,z 
_cell_length_a                    66.16124892 
_cell_length_b                    66.75472861235107 
_cell_length_c                    40.091904328922695 
_cell_angle_alpha                 83.03629438513596 
_cell_angle_beta                  93.11379545425164 
_cell_angle_gamma                 123.4624655632266 
loop_ 
_atom_site_label 
_atom_site_type_symbol 
_atom_site_fract_x 
_atom_site_fract_y 
_atom_site_fract_z 
_atom_site_charge 
N1          N  0.53467180  0.87426915  0.44520064    -0.02400
C2          C  0.52976541  0.85158193  0.45231717     0.00200
C3          C  0.50381783  0.83356356  0.98156161    -0.22600
C4          C  0.50221534  0.85130358  0.99250724    -0.22900
C5          C  0.51564452  0.87162364  0.97008423     0.00100
H6          H  0.49657405  0.81571905  0.99465958     0.13900
H7          H  0.49309588  0.84985199  0.01515259     0.14000
N8          N  0.31938887  0.91823990  0.44446249    -0.02400
C9          C  0.29510039  0.90206989  0.44888143     0.00200
C10         C  0.28292896  0.90640094  0.42268606    -0.22600
C11         C  0.30023988  0.92538154  0.40134099    -0.22900
C12         C  0.32234817  0.93200510  0.41515769     0.00100
H13         H  0.26373014  0.89560399  0.41774825     0.13900
H14         H  0.29708368  0.93207169  0.37698866     0.14000
C15         C  0.53120249  0.97770012  0.25599633     0.43600
N16         N  0.51933987  0.99347644  0.21635406     0.02500
C17         C  0.58899526  0.09996997  0.11167361    -0.05400
H18         H  0.59181105  0.10962542  0.24050175     0.08000
C19         C  0.50376206  0.07813590  0.23680811    -0.05800
Co20       Co  0.56066839  0.03623972  0.17604337     0.74200
N21         N  0.57639995  0.07974441  0.21060296    -0.24900
Co22       Co  0.55610059  0.08585343  0.17394115     0.74100
C23         C  0.52523262  0.09729946  0.25201120     0.43700
N24         N  0.47755762  0.02066268  0.21631822     0.02100
N25         N  0.53617085  0.08751936  0.21081926     0.02200
N26         N  0.59214638  0.06778545  0.11338004    -0.45800
H27         H  0.57140110  0.00660457  0.24292143     0.07900
N28         N  0.57887563  0.06137088  0.21102834     0.02500
N29         N  0.53494108  0.09073238  0.13722512     0.02200
C30         C  0.52367632  0.10579669  0.09571644     0.43800
N31         N  0.47951524  0.00190984  0.21825478    -0.24400
C32         C  0.54879644  0.00629371  0.11472510    -0.05300
N33         N  0.51144786  0.97518900  0.24039343    -0.45500
N34         N  0.54317385  0.10830148  0.11214200    -0.45700
C35         C  0.52655946  0.98733302  0.10012401     0.43600
N36         N  0.57749095  0.06484094  0.13755565     0.02500
N37         N  0.47679151  0.00396772  0.14502259    -0.24400
N38         N  0.54320866  0.00778619  0.21474300    -0.24900
N39         N  0.47468094  0.02260189  0.14345454     0.02100
H40         H  0.45785471  0.97119921  0.12112901     0.08000
H41         H  0.48324068  0.07722508  0.10804305     0.08000
N42         N  0.57550505  0.08349429  0.13712303    -0.25000
N43         N  0.51232778  0.07327365  0.21159930    -0.24600
N44         N  0.51732374  0.99712053  0.14305022     0.02500
C45         C  0.60088048  0.08082689  0.25143075     0.43900
C46         C  0.46778415  0.98721396  0.24614091    -0.05800
N47         N  0.51103196  0.07654099  0.13828438    -0.24600
H48         H  0.48484397  0.06973406  0.24304748     0.08000
N49         N  0.59373638  0.06154681  0.23480604    -0.45800
H50         H  0.46550032  0.96998356  0.25392727     0.08000
C51         C  0.44877512  0.99989209  0.10841497     0.43700
C52         C  0.55236334  0.99934141  0.23901427    -0.05300
Co53       Co  0.49793343  0.99864556  0.18077521     0.73800
N54         N  0.46487167  0.01965770  0.24154933    -0.45500
C55         C  0.59995758  0.08953399  0.09589494     0.44000
N56         N  0.50788549  0.98254901  0.11910613    -0.45500
Co57       Co  0.49350887  0.04834541  0.17717939     0.73900
C58         C  0.50220700  0.08475118  0.11309035    -0.05800
C59         C  0.58951076  0.09293847  0.23543917    -0.05400
N60         N  0.54121508  0.01130082  0.14108778    -0.24900
N61         N  0.54470665  0.10241500  0.23447125    -0.45700
H62         H  0.59174535  0.11757758  0.10616656     0.08000
C63         C  0.46134472  0.98880539  0.12351588    -0.05800
Cl64       Cl  0.52707409  0.04227700  0.17687504    -0.48800
C65         C  0.45822301  0.99917314  0.26149375     0.43700
H66         H  0.56745215  0.01474657  0.10697549     0.07900
N67         N  0.45776636  0.02072231  0.12215418    -0.45500
N68         N  0.52738435  0.21504123  0.40994338    -0.02400
C69         C  0.52882591  0.23633157  0.40546251     0.00200
C70         C  0.54097556  0.24954787  0.37565949    -0.22600
C71         C  0.54734289  0.23622426  0.36124238    -0.22900
C72         C  0.53881865  0.21530557  0.38260530     0.00100
H73         H  0.54392521  0.26662697  0.36476353     0.13900
H74         H  0.55638290  0.24085818  0.33716780     0.14000
N75         N  0.73022259  0.18222265  0.43570497    -0.02400
C76         C  0.75217738  0.20321045  0.43710930     0.00200
C77         C  0.76484738  0.20915214  0.40731019    -0.22600
C78         C  0.75012241  0.19125635  0.38702954    -0.22900
C79         C  0.72879393  0.17508871  0.40490427     0.00100
H80         H  0.78282461  0.22483163  0.40091938     0.13900
H81         H  0.75405239  0.19085422  0.36135734     0.14000
C82         C  0.07877808  0.51108454  0.44515318     0.43600
N83         N  0.05342143  0.50518583  0.40547548     0.02500
C84         C  0.05380221  0.59249975  0.29249001    -0.05400
H85         H  0.04186912  0.59818943  0.41884531     0.08000
C86         C  0.95959779  0.51641028  0.41262639    -0.05800
Co87       Co  0.06899352  0.55161495  0.36264965     0.74200
N88         N  0.04884388  0.57568337  0.39386358    -0.24900
Co89       Co  0.02296494  0.56204490  0.35653793     0.74100
C90         C  0.96681510  0.53934703  0.42451557     0.43700
N91         N  0.98117737  0.47849288  0.40081963     0.02100
N92         N  0.99462637  0.54520089  0.39164025     0.02200
N93         N  0.08277635  0.58419525  0.29627553    -0.45800
H94         H  0.10174319  0.55204073  0.42911832     0.07900
N95         N  0.06677645  0.57231985  0.39560269     0.02500
N96         N  0.99749527  0.54756555  0.31900166     0.02200
C97         C  0.97672931  0.54350686  0.27464287     0.43800
N98         N  0.99827953  0.47387405  0.40446010    -0.24400
C99         C  0.08555676  0.53702924  0.30393690    -0.05300
N100        N  0.05863351  0.49379345  0.43046874    -0.45500
N101        N  0.99503597  0.55990210  0.29252517    -0.45700
C102        C  0.07768532  0.51466740  0.29005974     0.43600
N103        N  0.06783324  0.57373811  0.32256704     0.02500
N104        N  0.00064843  0.47564904  0.33176024    -0.24400
N105        N  0.06923288  0.52880792  0.40267653    -0.24900
N106        N  0.98353856  0.48016519  0.32781231     0.02100
H107        H  0.00809685  0.45320385  0.30750060     0.08000
H108        H  0.95246251  0.50214651  0.28709998     0.08000
N109        N  0.05065783  0.57814307  0.32083020    -0.25000
N110        N  0.97800834  0.52183620  0.39252081    -0.24600
N111        N  0.05444630  0.50678037  0.33190107     0.02500
C112        C  0.07527593  0.59665662  0.43226421     0.43900
C113        C  0.99255994  0.45753952  0.43161320    -0.05800
N114        N  0.98166095  0.52405311  0.31982985    -0.24600
H115        H  0.94263804  0.49901713  0.41648420     0.08000
N116        N  0.08314508  0.58478650  0.41799032    -0.45800
H117        H  0.00267504  0.44965812  0.44056589     0.08000
C118        C  0.97637028  0.45677038  0.29032944     0.43700
C119        C  0.08578506  0.53424498  0.42668886    -0.05300
Co120      Co  0.02668758  0.48979905  0.36873554     0.73800
N121        N  0.96417163  0.46656371  0.42442742    -0.45500
C122        C  0.07485277  0.59613834  0.27622368     0.44000
N123        N  0.05835975  0.49658072  0.30872649    -0.45500
Co124      Co  0.98062478  0.50076526  0.36022175     0.73900
C125        C  0.96763717  0.51965903  0.29267909    -0.05800
C126        C  0.05251330  0.59065031  0.41635796    -0.05400
N127        N  0.07017004  0.53040427  0.32959956    -0.24900
N128        N  0.98865332  0.55630311  0.41031853    -0.45700
H129        H  0.04226661  0.59879575  0.28384252     0.08000
C130        C  0.99741880  0.46077499  0.30944595    -0.05800
Cl131      Cl  0.02479584  0.52601371  0.36227454    -0.48800
C132        C  0.96997066  0.45297745  0.44480667     0.43700
H133        H  0.10067891  0.55519733  0.29638255     0.07900
N134        N  0.96850900  0.46909392  0.30331386    -0.45500
N135        N  0.17671222  0.49433651  0.10800401    -0.02400
C136        C  0.19496803  0.49060698  0.10666375     0.00200
C137        C  0.19634150  0.47940667  0.13743821    -0.22600
C138        C  0.17870563  0.47624803  0.15804664    -0.22900
C139        C  0.16704856  0.48564381  0.13957388     0.00100
H140        H  0.20866299  0.47381481  0.14446093     0.13900
H141        H  0.17506614  0.46832287  0.18396938     0.14000
N142        N  0.86523883  0.32952795  0.11361368    -0.02400
C143        C  0.84463974  0.30712709  0.11265466     0.00200
C144        C  0.83598786  0.29693045  0.14519074    -0.22600
C145        C  0.85171247  0.31332051  0.16647619    -0.22900
C146        C  0.86940122  0.33311221  0.14649058     0.00100
H147        H  0.81984886  0.27952099  0.15299665     0.13900
H148        H  0.85017740  0.31120512  0.19359688     0.14000
N149        N  0.86713751  0.55787560  0.07952314    -0.02400
C150        C  0.84642763  0.55736587  0.08189225     0.00200
C151        C  0.84444776  0.56274662  0.11336178    -0.22600
C152        C  0.86440784  0.56662909  0.13097530    -0.22900
C153        C  0.87788084  0.56340139  0.10979003     0.00100
H154        H  0.83013216  0.56403855  0.12242535     0.13900
H155        H  0.86818282  0.57038974  0.15690142     0.14000
N156        N  0.18805393  0.72031753  0.56963290    -0.02400
C157        C  0.21076237  0.74055860  0.56741229     0.00200
C158        C  0.22118534  0.74385628  0.10318556    -0.22600
C159        C  0.20588887  0.72366831  0.12446626    -0.22900
C160        C  0.18576055  0.70931474  0.10595681     0.00100
H161        H  0.23836322  0.75941683  0.10974160     0.13900
H162        H  0.20889743  0.72002300  0.15067182     0.14000
C163        C  0.58044507  0.53791286  0.10080428     0.43600
N164        N  0.56328150  0.54711560  0.13473405     0.02500
C165        C  0.46850234  0.46540500  0.24702394    -0.05400
H166        H  0.44527068  0.46183883  0.11828847     0.08000
C167        C  0.46280454  0.54471809  0.11359552    -0.05800
Co168      Co  0.52643937  0.50317494  0.17890539     0.74200
N169        N  0.47783938  0.48067911  0.14728063    -0.24900
Co170      Co  0.47109179  0.49760487  0.18171677     0.74100
C171        C  0.44307282  0.52193233  0.10249828     0.43700
N172        N  0.52488062  0.57860572  0.12865888     0.02100
N173        N  0.46156718  0.51458864  0.14282347     0.02200
N174        N  0.50430906  0.46891404  0.24311512    -0.45800
H175        H  0.55552438  0.49747153  0.11892779     0.07900
N176        N  0.49908198  0.48324669  0.14582261     0.02500
N177        N  0.46605381  0.51614195  0.21580623     0.02200
C178        C  0.45362763  0.52565697  0.25585558     0.43800
N179        N  0.54618767  0.58125173  0.12746534    -0.24400
C180        C  0.55850856  0.51780528  0.24215101    -0.05300
N181        N  0.58124446  0.55663297  0.11226861    -0.45500
N182        N  0.45104053  0.50678498  0.24219923    -0.45700
C183        C  0.57481440  0.54026170  0.25669938     0.43600
N184        N  0.50202728  0.48278259  0.21871187     0.02500
N185        N  0.55036936  0.58354016  0.19958479    -0.24400
N186        N  0.55113271  0.52332243  0.13919556    -0.24900
N187        N  0.52926422  0.58110910  0.20126729     0.02100
H188        H  0.58450761  0.60556428  0.22385186     0.08000
H189        H  0.47742479  0.56613888  0.23703638     0.08000
N190        N  0.48120270  0.48096718  0.22023459    -0.25000
N191        N  0.47321774  0.53833866  0.13848223    -0.24600
N192        N  0.56455325  0.54835175  0.20793576     0.02500
C193        C  0.47891560  0.46183665  0.10620200     0.43900
C194        C  0.55810049  0.59580559  0.09950848    -0.05800
N195        N  0.47797574  0.53995652  0.21110920    -0.24600
H196        H  0.46790844  0.56296640  0.10526191     0.08000
N197        N  0.50048053  0.47224459  0.12160623    -0.45800
H198        H  0.57642913  0.60223540  0.09239616     0.08000
C199        C  0.55146411  0.60647185  0.23600812     0.43700
C200        C  0.56043905  0.51586462  0.11864190    -0.05300
Co201      Co  0.55671231  0.56552816  0.16710998     0.73800
N202        N  0.52124885  0.59024979  0.10245382    -0.45500
C203        C  0.48395808  0.45751819  0.26213890     0.44000
N204        N  0.57794969  0.55852595  0.23414563    -0.45500
Co205      Co  0.50123453  0.55980956  0.16984106     0.73900
C206        C  0.47141284  0.54760599  0.23523845    -0.05800
C207        C  0.46369980  0.46708168  0.12331869    -0.05400
N208        N  0.55291002  0.52454176  0.21214329    -0.24900
N209        N  0.44332262  0.50400658  0.12180431    -0.45700
H210        H  0.45015985  0.45920168  0.25368602     0.08000
C211        C  0.56568462  0.59943466  0.22047552    -0.05800
Cl212      Cl  0.51385606  0.53152821  0.17423546    -0.48800
C213        C  0.54126370  0.60140977  0.08282069     0.43700
H214        H  0.55101463  0.49944128  0.25321215     0.07900
N215        N  0.52910340  0.59458606  0.22282384    -0.45500
N216        N  0.45554129  0.33780307  0.45055317    -0.02400
C217        C  0.44967399  0.31466980  0.45399200     0.00200
C218        C  0.43491913  0.30187121  0.48213130    -0.22600
C219        C  0.43192851  0.31759201  0.49681221    -0.22900
C220        C  0.44494757  0.33945084  0.47718031     0.00100
H221        H  0.42880045  0.28366106  0.49266743     0.13900
H222        H  0.42149864  0.31152471  0.00746590     0.14000
N223        N  0.32749487  0.51002331  0.43336471    -0.02400
C224        C  0.30756478  0.51121766  0.43294500     0.00200
C225        C  0.29894715  0.50998962  0.40044059    -0.22600
C226        C  0.31382279  0.50780491  0.38059007    -0.22900
C227        C  0.33114952  0.50788640  0.40137925     0.00100
H228        H  0.28314199  0.50999013  0.39199619     0.13900
H229        H  0.31227910  0.50648902  0.35381935     0.14000
N230        N  0.69706668  0.55699363  0.44799458    -0.02400
C231        C  0.71200891  0.54917541  0.44600421     0.00200
C232        C  0.71011116  0.54123265  0.41499396    -0.22600
C233        C  0.69323286  0.54394307  0.39739493    -0.22900
C234        C  0.68553682  0.55351051  0.41825725     0.00100
H235        H  0.72037820  0.53476249  0.40585099     0.13900
H236        H  0.68702842  0.53922503  0.37227530     0.14000
N237        N  0.58647447  0.73662525  0.40022801    -0.02400
C238        C  0.59382426  0.76026222  0.39551330     0.00200
C239        C  0.60704807  0.77128120  0.36571807    -0.22600
C240        C  0.60790334  0.75410103  0.35164872    -0.22900
C241        C  0.59516989  0.73315349  0.37319088     0.00100
H242        H  0.61365372  0.78933219  0.35389778     0.13900
H243        H  0.61542645  0.75620371  0.32719063     0.14000
C244        C  0.41861745  0.53133240  0.32381504     0.17100
C245        C  0.40938526  0.53964318  0.34534196    -0.32000
C246        C  0.38686308  0.52270610  0.36117398     0.21500
C247        C  0.37425781  0.49849170  0.35612861     0.03700
C248        C  0.38377586  0.49008804  0.33522491    -0.21700
C249        C  0.40613108  0.50708942  0.31899047     0.12800
S250        S  0.44445796  0.54937063  0.29992953    -0.05400
C251        C  0.43841207  0.52405100  0.28306773    -0.08800
C252        C  0.41753853  0.50275292  0.29585821    -0.25400
S253        S  0.34600605  0.48135681  0.37432117    -0.02600
C254        C  0.35122452  0.50700102  0.38899989    -0.16100
C255        C  0.37380487  0.52764821  0.38032665    -0.14100
H256        H  0.41888229  0.55865002  0.34853681     0.21300
H257        H  0.37370150  0.47128510  0.33068730     0.17300
H258        H  0.41061498  0.48519618  0.28776953     0.19800
H259        H  0.37958566  0.54559109  0.38558889     0.13200
C260        C  0.37576606  0.52976394  0.00014154     0.17100
C261        C  0.39547189  0.54187564  0.02149939    -0.32000
C262        C  0.40330654  0.52832213  0.04049221     0.21500
C263        C  0.39197958  0.50378865  0.03846697     0.03700
C264        C  0.37245712  0.49173389  0.01687786    -0.21700
C265        C  0.36468777  0.50528224  0.99779778     0.12800
S266        S  0.36363479  0.54295766  0.97469159    -0.05400
C267        C  0.34360669  0.51342201  0.46075142    -0.08800
C268        C  0.34906850  0.49657188  0.47262610    -0.25400
S269        S  0.40389632  0.49049301  0.06403028    -0.02600
C270        C  0.42454411  0.51831714  0.07737362    -0.16100
C271        C  0.42212017  0.53679716  0.06265002    -0.14100
H272        H  0.40432869  0.56101878  0.02320583     0.21300
H273        H  0.36370108  0.47262116  0.01502666     0.17300
H274        H  0.34094315  0.47905741  0.46368743     0.19800
H275        H  0.43336613  0.55540414  0.06804661     0.13200
C276        C  0.58279936  0.65753942  0.29237611     0.17100
C277        C  0.59932519  0.67795898  0.30833363    -0.32000
C278        C  0.58998874  0.68557230  0.33066038     0.23000
C279        C  0.56535082  0.67306958  0.33760117     0.03700
C280        C  0.54878106  0.65259329  0.32161927    -0.21700
C281        C  0.55808083  0.64537388  0.29850277     0.12800
S282        S  0.59055869  0.64602236  0.26360093    -0.05400
C283        C  0.56016802  0.62487730  0.25922458    -0.08800
C284        C  0.54491991  0.62668672  0.27918198    -0.25400
S285        S  0.55758509  0.68638430  0.36343444    -0.02600
C286        C  0.58770363  0.70948884  0.36360887    -0.16100
C287        C  0.60290881  0.70644964  0.34560963    -0.14100
H288        H  0.61855594  0.68792895  0.30276656     0.21300
H289        H  0.52947162  0.64322096  0.32612014     0.17300
H290        H  0.52533701  0.61489559  0.27965446     0.19800
H291        H  0.62211770  0.71975376  0.34153661     0.13200
C292        C  0.54307962  0.64648279  0.01238200     0.17100
C293        C  0.53739796  0.65923405  0.98749117    -0.32000
C294        C  0.55623243  0.68251703  0.97485816     0.21500
C295        C  0.57964711  0.69266154  0.98667338     0.03700
C296        C  0.58534811  0.67987850  0.01148664    -0.21700
C297        C  0.56656808  0.65650032  0.02384715     0.12800
S298        S  0.52263541  0.61837644  0.03157097    -0.05400
C299        C  0.54598100  0.62001816  0.05505571    -0.08800
C300        C  0.56843964  0.64121133  0.04808814    -0.25400
S301        S  0.60493540  0.72035138  0.45160320    -0.02600
C302        C  0.58198473  0.72207521  0.43201253    -0.16100
C303        C  0.55894436  0.70419517  0.44449323    -0.14100
H304        H  0.51914603  0.65126001  0.97816294     0.21300
H305        H  0.60369317  0.68766505  0.02035439     0.17300
H306        H  0.58495771  0.64561473  0.06106051     0.19800
H307        H  0.54233588  0.70163096  0.43408604     0.13200
C308        C  0.59937983  0.53627262  0.34377506     0.17100
C309        C  0.60695250  0.52783280  0.37214694    -0.32000
C310        C  0.62961440  0.54415347  0.38519159     0.21500
C311        C  0.64344629  0.56823063  0.37198593     0.03700
C312        C  0.63517395  0.57700970  0.34478701    -0.21700
C313        C  0.61321964  0.56030638  0.33035655     0.12800
S314        S  0.57569507  0.51796279  0.31959047    -0.05400
C315        C  0.58503745  0.54273200  0.29049110    -0.08800
C316        C  0.60470136  0.56422796  0.29997893    -0.25400
S317        S  0.67241011  0.58378306  0.38637276    -0.02600
C318        C  0.66604962  0.55738252  0.40926883    -0.16100
C319        C  0.64240352  0.53797426  0.40706320    -0.14100
H320        H  0.59684934  0.50881597  0.38139247     0.21300
H321        H  0.64654191  0.59541750  0.33317873     0.17300
H322        H  0.61356363  0.58130713  0.28418481     0.19800
H323        H  0.63592327  0.51961556  0.41736620     0.13200
C324        C  0.66847923  0.56581909  0.01626353     0.17100
C325        C  0.65765017  0.57395121  0.03538676    -0.32000
C326        C  0.63488197  0.55664761  0.05057792     0.21500
C327        C  0.62363045  0.53230004  0.04720997     0.03700
C328        C  0.63446050  0.52417905  0.02821479    -0.21700
C329        C  0.65702462  0.54147493  0.01271134     0.12800
S330        S  0.69486504  0.58404607  0.99323546    -0.05400
C331        C  0.68777067  0.55902074  0.47801350    -0.08800
C332        C  0.66906177  0.53858004  0.49605088    -0.25400
S333        S  0.59601623  0.51416410  0.06706073    -0.02600
C334        C  0.59931600  0.53956399  0.07992568    -0.16100
C335        C  0.62097252  0.56095074  0.06926622    -0.14100
H336        H  0.66631623  0.59300798  0.03761941     0.21300
H337        H  0.62736914  0.50841194  0.53465279     0.17300
H338        H  0.66308339  0.52030650  0.49228577     0.19800
H339        H  0.62625703  0.57867453  0.07487657     0.13200
C340        C  0.45987100  0.40708880  0.33551075     0.17100
C341        C  0.44631942  0.38951799  0.36207019    -0.32000
C342        C  0.45648466  0.37780063  0.37974669     0.21500
C343        C  0.47913621  0.38313728  0.37147938     0.03700
C344        C  0.49269251  0.40064570  0.34454211    -0.21700
C345        C  0.48252488  0.41253892  0.32688442     0.12800
S346        S  0.45077756  0.42369608  0.31181779    -0.05400
C347        C  0.47777209  0.43832482  0.28988725    -0.08800
C348        C  0.49292500  0.43052359  0.30055091    -0.25400
S349        S  0.48844614  0.36743570  0.39757366    -0.02600
C350        C  0.46142682  0.35356184  0.41955643    -0.16100
C351        C  0.44627716  0.36088537  0.40698898    -0.14100
H352        H  0.42871899  0.38539454  0.36899689     0.21300
H353        H  0.51047725  0.40507631  0.33800874     0.17300
H354        H  0.51061245  0.43771573  0.28975291     0.19800
H355        H  0.42886178  0.35455704  0.41794674     0.13200
C356        C  0.47349576  0.39784433  0.00722659     0.17100
C357        C  0.48846459  0.41879364  0.02308108    -0.32000
C358        C  0.47721225  0.42599817  0.04283428     0.21500
C359        C  0.45218324  0.41350012  0.04565679     0.03700
C360        C  0.43723355  0.39266271  0.02961506    -0.21700
C361        C  0.44848902  0.38490984  0.01096182     0.12800
S362        S  0.47899664  0.38818431  0.48351658    -0.05400
C363        C  0.45029807  0.36229466  0.48749671    -0.08800
C364        C  0.43714821  0.36381055  0.99647239    -0.25400
S365        S  0.44206614  0.42449593  0.07202360    -0.02600
C366        C  0.47186017  0.44551565  0.08030566    -0.16100
C367        C  0.48862092  0.44442670  0.06274287    -0.14100
H368        H  0.50801180  0.42844988  0.02127223     0.21300
H369        H  0.41772429  0.38236546  0.03273070     0.17300
H370        H  0.41780417  0.35047516  0.99763784     0.19800
H371        H  0.50808719  0.45597252  0.06531058     0.13200
C372        C  0.80847577  0.56389905  0.01199835     0.17100
C373        C  0.80040486  0.57327626  0.98540492    -0.32000
C374        C  0.75884422  0.54453737  0.49127827     0.21500
C375        C  0.77093743  0.56927503  0.49205565     0.03700
C376        C  0.79496192  0.58271455  0.50278566    -0.21700
C377        C  0.80610453  0.57024044  0.51319292     0.12800
S378        S  0.83775876  0.57166454  0.01701637    -0.05400
C379        C  0.82898186  0.55421175  0.05522934    -0.08800
C380        C  0.82861388  0.57996543  0.52692481    -0.25400
S381        S  0.75450872  0.58120126  0.47756987    -0.02600
C382        C  0.73122613  0.55266769  0.46966252    -0.16100
C383        C  0.73607726  0.53494363  0.47826534    -0.14100
H384        H  0.81255268  0.58565391  0.96499934     0.21300
H385        H  0.80449388  0.60205401  0.50335937     0.17300
H386        H  0.84023072  0.59868173  0.53179419     0.19800
H387        H  0.77420909  0.58528498  0.94000556     0.13200
C388        C  0.23378239  0.50769442  0.02584209     0.17100
C389        C  0.24320192  0.51298712  0.99306592    -0.32000
C390        C  0.26570276  0.51205621  0.48972653     0.21500
C391        C  0.27471696  0.50334357  0.51529382     0.03700
C392        C  0.26519229  0.49718799  0.54802529    -0.21700
C393        C  0.24632086  0.50015472  0.55395526     0.12800
S394        S  0.20746031  0.50485166  0.03660590    -0.05400
C395        C  0.21194556  0.49750413  0.07794709    -0.08800
C396        C  0.23519423  0.49550856  0.58428635    -0.25400
S397        S  0.29719777  0.50037479  0.50292870    -0.02600
C398        C  0.29467881  0.51101702  0.46255669    -0.16100
C399        C  0.27713168  0.51657282  0.45951106    -0.14100
H400        H  0.23407139  0.51604650  0.97178932     0.21300
H401        H  0.27219562  0.49035596  0.56807404     0.17300
H402        H  0.24000016  0.48867392  0.60704449     0.19800
H403        H  0.26846777  0.51932989  0.93464236     0.13200
C404        C  0.95340511  0.56807250  0.20257936     0.17100
C405        C  0.94650484  0.58168522  0.18188456    -0.32000
C406        C  0.92854318  0.56982743  0.15823041     0.21500
C407        C  0.91861218  0.54576184  0.15425581     0.03700
C408        C  0.92579725  0.53222692  0.17464704    -0.21700
C409        C  0.94299330  0.54381335  0.19933775     0.12800
S410        S  0.97305454  0.57854957  0.23500216    -0.05400
C411        C  0.96656272  0.54976256  0.24497248    -0.08800
C412        C  0.95044371  0.53314719  0.22377171    -0.25400
S413        S  0.89514926  0.53400548  0.12684841    -0.02600
C414        C  0.89812292  0.56147117  0.12191959    -0.16100
C415        C  0.91687734  0.57894190  0.13963102    -0.14100
H416        H  0.95382249  0.60032842  0.18535018     0.21300
H417        H  0.91733664  0.51316936  0.17266874     0.17300
H418        H  0.94414082  0.51422154  0.22650372     0.19800
H419        H  0.92029113  0.59664048  0.14121583     0.13200
C420        C  0.93887924  0.56214028  0.47880327     0.17100
C421        C  0.93501652  0.57490318  0.50011385    -0.32000
C422        C  0.91127040  0.56489786  0.51137169     0.21500
C423        C  0.89196004  0.54329262  0.50147213     0.03700
C424        C  0.89583086  0.53048977  0.47991649    -0.21700
C425        C  0.91980090  0.54029607  0.46915696     0.12800
S426        S  0.96656741  0.57111385  0.46349023    -0.05400
C427        C  0.95263980  0.54491793  0.44439836    -0.08800
C428        C  0.92763951  0.53021655  0.44943923    -0.25400
S429        S  0.86466179  0.53391836  0.51948590    -0.02600
C430        C  0.87970419  0.55918808  0.54086308    -0.16100
C431        C  0.90436166  0.57404973  0.53376717    -0.14100
H432        H  0.95000331  0.59171420  0.50817992     0.21300
H433        H  0.88093280  0.51338531  0.47252713     0.17300
H434        H  0.91587203  0.51313520  0.43926364     0.19800
H435        H  0.91312153  0.58772884  0.05089744     0.13200
C436        C  0.91194089  0.39231239  0.18464296     0.17100
C437        C  0.92233294  0.41476630  0.19705171    -0.32000
C438        C  0.93735630  0.41930703  0.22513755     0.21500
C439        C  0.94225465  0.40249459  0.23962866     0.03700
C440        C  0.93167739  0.38003833  0.22751623    -0.21700
C441        C  0.91631313  0.37531931  0.19999546     0.12800
S442        S  0.89198043  0.38248366  0.15217899    -0.05400
C443        C  0.88916013  0.35509430  0.16016442    -0.08800
C444        C  0.90319342  0.35394483  0.18621798    -0.25400
S445        S  0.96132622  0.41145013  0.27287120    -0.02600
C446        C  0.96225008  0.43789430  0.26791697    -0.16100
C447        C  0.94857818  0.43964239  0.24166777    -0.14100
H448        H  0.91852739  0.42789550  0.18574689     0.21300
H449        H  0.93498670  0.36666512  0.23936734     0.17300
H450        H  0.90288378  0.33786591  0.19561224     0.19800
H451        H  0.94715226  0.45501877  0.23491157     0.13200
C452        C  0.92313646  0.41455495  0.51508438     0.17100
C453        C  0.90392605  0.40480401  0.53796522    -0.32000
C454        C  0.89567359  0.38206679  0.55514211     0.21500
C455        C  0.90601462  0.36939251  0.54987910     0.03700
C456        C  0.92564325  0.37939034  0.52722397    -0.21700
C457        C  0.93399782  0.40234249  0.50996151     0.12800
S458        S  0.93443298  0.44125605  0.49063879    -0.05400
C459        C  0.95434094  0.43635926  0.47328002    -0.08800
C460        C  0.95232027  0.41502627  0.48607506    -0.25400
S461        S  0.89271566  0.34168903  0.57310904    -0.02600
C462        C  0.88116603  0.34566177  0.08628542    -0.16100
C463        C  0.87722037  0.36159688  0.06655363    -0.14100
H464        H  0.89553315  0.41442568  0.54188771     0.21300
H465        H  0.93383911  0.36964191  0.52300201     0.17300
H466        H  0.96288177  0.40872022  0.47741861     0.19800
H467        H  0.86165244  0.36269536  0.06900764     0.13200
C468        C  0.11572585  0.51706516  0.21830673     0.17100
C469        C  0.13318225  0.52403452  0.19328551    -0.32000
C470        C  0.13419914  0.50578748  0.18089681     0.21500
C471        C  0.11848839  0.48169381  0.19291900     0.03700
C472        C  0.10077339  0.47470250  0.21749056    -0.21700
C473        C  0.09981418  0.49293284  0.22996367     0.12800
S474        S  0.11264968  0.53651549  0.23817240    -0.05400
C475        C  0.08971743  0.51190854  0.26256116    -0.08800
C476        C  0.08467602  0.48983340  0.25513588    -0.25400
S477        S  0.12430627  0.46256684  0.17756799    -0.02600
C478        C  0.14800433  0.48717077  0.15432467    -0.16100
C479        C  0.15102738  0.50901822  0.15839740    -0.14100
H480        H  0.14587076  0.54289839  0.18457897     0.21300
H481        H  0.08878285  0.45592839  0.22725994     0.17300
H482        H  0.07119921  0.47251318  0.26817036     0.19800
H483        H  0.16589246  0.52646627  0.14759498     0.13200
C484        C  0.11124419  0.49198831  0.51159867     0.17100
C485        C  0.11878450  0.47975204  0.53446392    -0.32000
C486        C  0.14037273  0.49372353  0.55187040     0.21500
C487        C  0.15381691  0.51877942  0.54685870     0.03700
C488        C  0.14628912  0.53097440  0.52401861    -0.21700
C489        C  0.12477356  0.51700685  0.50657435     0.12800
S490        S  0.08561156  0.47848351  0.48787756    -0.05400
C491        C  0.09327085  0.50686819  0.47098005    -0.08800
C492        C  0.11457640  0.52561078  0.48338277    -0.25400
S493        S  0.17910197  0.53251974  0.57102972    -0.02600
C494        C  0.17171354  0.50421599  0.58749934    -0.16100
C495        C  0.14498187  0.48224132  0.06524734    -0.14100
H496        H  0.10827612  0.46021361  0.53854963     0.21300
H497        H  0.15670909  0.55051928  0.52009374     0.17300
H498        H  0.12230753  0.54462054  0.47584360     0.19800
H499        H  0.13694790  0.46305929  0.07158134     0.13200
C500        C  0.10135006  0.63778205  0.19467714     0.17100
C501        C  0.11006544  0.65720192  0.16944367    -0.32000
C502        C  0.13043390  0.66338503  0.15087116     0.21500
C503        C  0.14099468  0.65017868  0.15614475     0.03700
C504        C  0.13163765  0.63016099  0.18035834    -0.21700
C505        C  0.11205935  0.62472820  0.20001383     0.12800
S506        S  0.07957649  0.63002830  0.22367391    -0.05400
C507        C  0.08569241  0.60967706  0.24368064    -0.08800
C508        C  0.10299850  0.60843133  0.22801433    -0.25400
S509        S  0.16785388  0.66281219  0.13542730    -0.02600
C510        C  0.16492233  0.68617655  0.11989138    -0.16100
C511        C  0.14402143  0.68400539  0.12958181    -0.14100
H512        H  0.10248581  0.66812585  0.16618579     0.21300
H513        H  0.14047564  0.62048172  0.18553042     0.17300
H514        H  0.10945344  0.59705966  0.23753752     0.19800
H515        H  0.14027391  0.69794043  0.12414250     0.13200
C516        C  0.10804234  0.64936649  0.48649399     0.17100
C517        C  0.11462712  0.66664608  0.50878436    -0.32000
C518        C  0.13934260  0.68178444  0.51594307     0.21500
C519        C  0.15671527  0.68023787  0.50074453     0.03700
C520        C  0.15014249  0.66304110  0.47851097    -0.21700
C521        C  0.12546120  0.64745188  0.47222282     0.12800
S522        S  0.07903561  0.62867446  0.47532831    -0.05400
C523        C  0.09058916  0.61704828  0.45199240    -0.08800
C524        C  0.11554357  0.62879431  0.45272552    -0.25400
S525        S  0.18546893  0.69887124  0.51418201    -0.02600
C526        C  0.17402373  0.70834159  0.54150485    -0.16100
C527        C  0.14922597  0.69799630  0.53945981    -0.14100
H528        H  0.10103844  0.66773231  0.52080153     0.21300
H529        H  0.16364100  0.66133789  0.46747515     0.17300
H530        H  0.12591067  0.62405753  0.43944795     0.19800
H531        H  0.13949259  0.70278775  0.05838221     0.13200
C532        C  0.81598999  0.28116674  0.02857094     0.17100
C533        C  0.80892679  0.27701726  0.99515765    -0.32000
C534        C  0.79032780  0.25345065  0.98901778     0.21500
C535        C  0.77916203  0.23489908  0.01491361     0.03700
C536        C  0.78616396  0.23908623  0.04825190    -0.21700
C537        C  0.80482639  0.26257229  0.05433709     0.12800
S538        S  0.83827078  0.30829470  0.04161364    -0.05400
C539        C  0.83250163  0.29448452  0.08239696    -0.08800
C540        C  0.81419095  0.27001778  0.08498785    -0.25400
S541        S  0.75882697  0.20469408  0.50693978    -0.02600
C542        C  0.76203546  0.21763289  0.46609502    -0.16100
C543        C  0.77709051  0.24272519  0.46231042    -0.14100
H544        H  0.81767514  0.29144080  0.97483158     0.21300
H545        H  0.77760107  0.22461080  0.06855529     0.17300
H546        H  0.80786890  0.25802651  0.10813592     0.19800
H547        H  0.78156896  0.25391108  0.43847285     0.13200
C548        C  0.49269131  0.29711529  0.43197103     0.17100
C549        C  0.51300274  0.29581408  0.43029490    -0.32000
C550        C  0.50901033  0.27285792  0.43077386     0.21500
C551        C  0.48588382  0.25207866  0.43256199     0.03700
C552        C  0.46552348  0.25338976  0.43423028    -0.21700
C553        C  0.46952624  0.27639100  0.43378209     0.12800
S554        S  0.49381492  0.32300506  0.43472906    -0.05400
C555        C  0.46268962  0.30584838  0.43852805    -0.08800
C556        C  0.45225093  0.28132936  0.43705471    -0.25400
S557        S  0.48500179  0.22629373  0.42919453    -0.02600
C558        C  0.51609985  0.24378251  0.42461018    -0.16100
C559        C  0.52634228  0.26814814  0.42695848    -0.14100
H560        H  0.53114075  0.31198746  0.42873607     0.21300
H561        H  0.44737690  0.23724019  0.43554790     0.17300
H562        H  0.43314069  0.26758901  0.44104328     0.19800
H563        H  0.54533615  0.28208522  0.42228547     0.13200
C564        C  0.65099723  0.11513976  0.02985315     0.17100
C565        C  0.66906012  0.11942528  0.00776220    -0.32000
C566        C  0.68323564  0.14261150  0.99026582     0.21500
C567        C  0.67959278  0.16073483  0.99448679     0.03700
C568        C  0.66136623  0.15634891  0.01623210    -0.21700
C569        C  0.64725201  0.13321422  0.03375966     0.12800
S570        S  0.63228422  0.08852182  0.05429585    -0.05400
C571        C  0.61930104  0.10194108  0.06986337    -0.08800
C572        C  0.62903286  0.12571047  0.05646755    -0.25400
S573        S  0.69881321  0.18772649  0.97126305    -0.02600
C574        C  0.71188742  0.17442293  0.95579095    -0.16100
C575        C  0.70168854  0.15035058  0.96779253    -0.14100
H576        H  0.67206330  0.10538212  0.00455031     0.21300
H577        H  0.65842319  0.17041884  0.01954567     0.17300
H578        H  0.62335906  0.13710825  0.06329638     0.19800
H579        H  0.70746372  0.13919078  0.96029495     0.13200
C580        C  0.65529694  0.10561478  0.31056865     0.17100
C581        C  0.67828461  0.11505315  0.32490953    -0.32000
C582        C  0.68436428  0.12965304  0.35104799     0.21500
C583        C  0.66796727  0.13388514  0.36315912     0.03700
C584        C  0.64504884  0.12445116  0.34890427    -0.21700
C585        C  0.63933690  0.11067678  0.32199295     0.12800
S586        S  0.64496922  0.08899344  0.27698103    -0.05400
C587        C  0.61941359  0.08982020  0.27763403    -0.08800
C588        C  0.61885676  0.10185785  0.30302041    -0.25400
S589        S  0.67906436  0.15299732  0.39365698    -0.02600
C590        C  0.70644647  0.15604817  0.38957064    -0.16100
C591        C  0.70655789  0.14245637  0.36600112    -0.14100
H592        H  0.69117394  0.11192475  0.31527962     0.21300
H593        H  0.63258279  0.12849851  0.35752150     0.17300
H594        H  0.60444877  0.10451259  0.30686695     0.19800
H595        H  0.72235012  0.14278774  0.35913572     0.13200
C596        C  0.51292511  0.16945667  0.98253917     0.17100
C597        C  0.50103466  0.15073502  0.00903281    -0.32000
C598        C  0.51458695  0.14271277  0.02743967     0.21500
C599        C  0.53881775  0.15302572  0.01978219     0.03700
C600        C  0.55053824  0.17146542  0.99344084    -0.21700
C601        C  0.53709812  0.17935357  0.97516231     0.12800
S602        S  0.50015489  0.18195851  0.95647292    -0.05400
C603        C  0.52404264  0.20025375  0.44122332    -0.08800
C604        C  0.54560623  0.19695335  0.94858761    -0.25400
S605        S  0.55255183  0.14163958  0.04500445    -0.02600
C606        C  0.52545332  0.12244440  0.06637708    -0.16100
C607        C  0.50668782  0.12486651  0.05422655    -0.14100
H608        H  0.48214426  0.14279614  0.01499854     0.21300
H609        H  0.56943355  0.17939736  0.98745488     0.17300
H610        H  0.56392553  0.20673320  0.93858849     0.19800
H611        H  0.48849672  0.11451536  0.06475940     0.13200
C612        C  0.51729015  0.12918881  0.31854321     0.17100
C613        C  0.50834634  0.13783732  0.33987454    -0.32000
C614        C  0.52502648  0.15988761  0.35245810     0.21500
C615        C  0.54956197  0.17247712  0.34465619     0.03700
C616        C  0.55857450  0.16343739  0.32425050    -0.21700
C617        C  0.54185676  0.14172234  0.31104378     0.12800
S618        S  0.49976164  0.10434859  0.29760538    -0.05400
C619        C  0.52578896  0.11111229  0.27831997    -0.08800
C620        C  0.54687401  0.13130311  0.28818400    -0.25400
S621        S  0.56637791  0.20046379  0.35797671    -0.02600
C622        C  0.54012135  0.19527446  0.37404483    -0.16100
C623        C  0.51955800  0.17275666  0.37000375    -0.14100
H624        H  0.48910334  0.12845237  0.34498726     0.21300
H625        H  0.57761859  0.17359134  0.31740167     0.17300
H626        H  0.56479112  0.13850139  0.27819598     0.19800
H627        H  0.50134625  0.16712093  0.37658288     0.13200
C628        C  0.27370492  0.84066752  0.49835254     0.17100
C629        C  0.27194143  0.81784657  0.01450464    -0.32000
C630        C  0.24925237  0.79896693  0.51945410     0.21500
C631        C  0.22835580  0.79839908  0.51108839     0.03700
C632        C  0.22979914  0.81922964  0.49560261    -0.21700
C633        C  0.25304894  0.84040658  0.48955728     0.12800
S634        S  0.30059654  0.86526854  0.98873619    -0.05400
C635        C  0.28362310  0.87895327  0.47116873    -0.08800
C636        C  0.25860985  0.86243056  0.47413694    -0.25400
S637        S  0.20220125  0.77141083  0.52392617    -0.02600
C638        C  0.21989890  0.76131496  0.54133083    -0.16100
C639        C  0.24343044  0.77604066  0.03847616    -0.14100
H640        H  0.28790595  0.81746121  0.02036926     0.21300
H641        H  0.21360836  0.81904574  0.48905714     0.17300
H642        H  0.24517494  0.86592149  0.46417879     0.19800
H643        H  0.25698796  0.77267840  0.04836313     0.13200
C644        C  0.36979162  0.93740398  0.01400500     0.17100
C645        C  0.39045105  0.94216602  0.03188980    -0.32000
C646        C  0.40098018  0.96117826  0.05201305     0.21500
C647        C  0.39141809  0.97491850  0.05453324     0.03700
C648        C  0.37040891  0.96990056  0.03697994    -0.21700
C649        C  0.35989204  0.95084411  0.01663125     0.12800
S650        S  0.35581980  0.91647408  0.98601036    -0.05400
C651        C  0.33597845  0.92543472  0.97815371    -0.08800
C652        C  0.34034811  0.94396119  0.99606158    -0.25400
S653        S  0.40780919  0.99784060  0.07950435    -0.02600
C654        C  0.42751423  0.98852529  0.08656747    -0.16100
C655        C  0.42150635  0.96879871  0.07037360    -0.14100
H656        H  0.39833851  0.93184813  0.02959672     0.21300
H657        H  0.36291231  0.98065170  0.03853878     0.17300
H658        H  0.33045278  0.95263963  0.99287603     0.19800
H659        H  0.43180131  0.96055800  0.07160657     0.13200
C660        C  0.37722755  0.97282772  0.35638081     0.17100
C661        C  0.39370918  0.98959920  0.33123734    -0.32000
C662        C  0.41091562  0.98570042  0.32028818     0.21500
C663        C  0.41182048  0.96606920  0.33377712     0.03700
C664        C  0.39569313  0.94960668  0.35944372    -0.21700
C665        C  0.37844295  0.95346585  0.37030767     0.12800
S666        S  0.35341550  0.97289077  0.37075968    -0.05400
C667        C  0.34537457  0.94682371  0.39620351    -0.08800
C668        C  0.36031982  0.93861864  0.39335193    -0.25400
S669        S  0.43286750  0.96357228  0.31521890    -0.02600
C670        C  0.44047022  0.98925267  0.28909475    -0.16100
C671        C  0.42755242  0.99924128  0.29491826    -0.14100
H672        H  0.39268540  0.00459716  0.31994325     0.21300
H673        H  0.39609897  0.93407293  0.36981195     0.17300
H674        H  0.35714477  0.92178274  0.40581172     0.19800
H675        H  0.42962837  0.01510573  0.28051598     0.13200
C676        C  0.55665415  0.78271195  0.42561320     0.17100
C677        C  0.53777018  0.78538983  0.43250337    -0.32000
C678        C  0.54273803  0.80890065  0.42900773     0.21500
C679        C  0.56539364  0.82890409  0.41896885     0.03700
C680        C  0.58426407  0.82622142  0.41210367    -0.21700
C681        C  0.57935204  0.80273632  0.41588377     0.12800
S682        S  0.55405775  0.75568119  0.42607553    -0.05400
C683        C  0.58380453  0.77152688  0.41246383    -0.08800
C684        C  0.59504658  0.79646783  0.40903014    -0.25400
S685        S  0.56821277  0.85598322  0.41900311    -0.02600
C686        C  0.53877234  0.84020186  0.43374958    -0.16100
C687        C  0.52733951  0.81527195  0.43700772    -0.14100
H688        H  0.51294055  0.76203168  0.95025376     0.21300
H689        H  0.60207070  0.84176993  0.40446308     0.17300
H690        H  0.61330829  0.80936747  0.39941126     0.19800
H691        H  0.50018809  0.79391938  0.95426009     0.13200
C692        C  0.50918088  0.94403586  0.03369944     0.17100
C693        C  0.49679608  0.92424733  0.01503277    -0.32000
C694        C  0.51058328  0.91824316  0.99862416     0.21500
C695        C  0.53569252  0.93193781  0.99945769     0.03700
C696        C  0.54816908  0.95234180  0.01716407    -0.21700
C697        C  0.53429150  0.95774074  0.03484914     0.12800
S698        S  0.49542353  0.95166894  0.05949994    -0.05400
C699        C  0.52372202  0.97331560  0.07258366    -0.08800
C700        C  0.54279835  0.97482740  0.05697938    -0.25400
S701        S  0.54879454  0.91942125  0.98239511    -0.02600
C702        C  0.52012526  0.89524545  0.97501482    -0.16100
C703        C  0.50160745  0.89735080  0.98433447    -0.14100
H704        H  0.47718101  0.91297252  0.01529555     0.21300
H705        H  0.56771441  0.96249155  0.01906802     0.17300
H706        H  0.56173382  0.98688297  0.06273491     0.19800
H707        H  0.48253112  0.88319576  0.98371471     0.13200
C708        C  0.52017812  0.92564561  0.32246983     0.17100
C709        C  0.51033790  0.90413576  0.34419051    -0.32000
C710        C  0.52578349  0.90202715  0.36768819     0.21500
C711        C  0.54995957  0.92053783  0.36964416     0.03700
C712        C  0.55987533  0.94196868  0.34762772    -0.21700
C713        C  0.54442892  0.94406096  0.32402062     0.12800
S714        S  0.50421552  0.93204601  0.29309324    -0.05400
C715        C  0.53050907  0.95979443  0.28244092    -0.08800
C716        C  0.55050138  0.96366347  0.30095029    -0.25400
S717        S  0.56501225  0.91528967  0.40208165    -0.02600
C718        C  0.53855141  0.88771381  0.41270420    -0.16100
C719        C  0.51920989  0.88313199  0.39217852    -0.14100
H720        H  0.49134749  0.88984055  0.34324646     0.21300
H721        H  0.57867119  0.95658173  0.34930713     0.17300
H722        H  0.56843772  0.98005986  0.29802779     0.19800
H723        H  0.50088089  0.86753400  0.39656414     0.13200
N724        N  0.52553519  0.86720947  0.94552662    -0.02400
C725        C  0.51816468  0.84363007  0.95267764     0.00200
C726        C  0.51962228  0.84204468  0.48427250    -0.22600
C727        C  0.51798380  0.85922253  0.49709076    -0.22900
C728        C  0.52720081  0.87859479  0.47257981     0.00100
H729        H  0.51512284  0.82495014  0.49760770     0.13900
H730        H  0.51149362  0.85804277  0.52191806     0.14000
N731        N  0.31969678  0.91820827  0.95033902    -0.02400
C732        C  0.29585848  0.90023675  0.95077388     0.00200
C733        C  0.28543937  0.90266792  0.92093305    -0.22600
C734        C  0.30360252  0.92249729  0.90154635    -0.22900
C735        C  0.32443756  0.93156449  0.92022233     0.00100
H736        H  0.26728963  0.89002408  0.91265970     0.13900
H737        H  0.30225011  0.92815168  0.87551439     0.14000
C738        C  0.52876438  0.97718703  0.76275142     0.43600
N739        N  0.51701610  0.99151006  0.72076413     0.02500
C740        C  0.58616247  0.09513875  0.61154468    -0.05400
H741        H  0.59013028  0.10917545  0.73809461     0.08000
C742        C  0.50049954  0.07613143  0.73356110    -0.05800
Co743      Co  0.55855786  0.03343159  0.67984205     0.74200
N744        N  0.57389543  0.07774550  0.71117876    -0.24900
Co745      Co  0.55336513  0.08256568  0.67334105     0.74100
C746        C  0.52204725  0.09575509  0.74809794     0.43700
N747        N  0.47405586  0.01748793  0.71556484     0.02100
N748        N  0.53297011  0.08456724  0.70879392     0.02200
N749        N  0.59028508  0.06342957  0.61671325    -0.45800
H750        H  0.56898137  0.00590667  0.74965377     0.07900
N751        N  0.57651294  0.05940548  0.71318475     0.02500
N752        N  0.53242117  0.08677744  0.63566217     0.02200
C753        C  0.52133203  0.10266778  0.59505873     0.43800
N754        N  0.47625113  0.99885108  0.71880951    -0.24400
C755        C  0.54803071  0.00409879  0.61954073    -0.05300
N756        N  0.50910281  0.97399633  0.74593506    -0.45500
N757        N  0.54074408  0.10486563  0.61132769    -0.45700
C758        C  0.52630161  0.98575378  0.60367776     0.43600
N759        N  0.57548651  0.06105457  0.64019973     0.02500
N760        N  0.47485156  0.99967972  0.64548810    -0.24400
N761        N  0.54088471  0.00599453  0.71958601    -0.24900
N762        N  0.47292434  0.01847896  0.64230751     0.02100
H763        H  0.45774232  0.96740456  0.62026926     0.08000
H764        H  0.48087253  0.07421960  0.60727542     0.08000
N765        N  0.57301601  0.07948367  0.63782892    -0.25000
N766        N  0.50909888  0.07037727  0.70944614    -0.24600
N767        N  0.51586162  0.99353238  0.64729768     0.02500
C768        C  0.59949767  0.08071767  0.75141118     0.43900
C769        C  0.46444091  0.98459827  0.74690295    -0.05800
N770        N  0.50852030  0.07254966  0.63643804    -0.24600
H771        H  0.48157930  0.06814071  0.73930636     0.08000
N772        N  0.59201070  0.06065509  0.73660959    -0.45800
H773        H  0.46282716  0.96784585  0.75604703     0.08000
C774        C  0.44944534  0.99647037  0.60463169     0.43700
C775        C  0.54995501  0.99846462  0.74526862    -0.05300
Co776      Co  0.49563963  0.99529563  0.68326372     0.73800
N777        N  0.46114995  0.01685691  0.74026405    -0.45500
C778        C  0.59754847  0.08446820  0.59751090     0.44000
N779        N  0.50705582  0.97988004  0.62228175    -0.45500
Co780      Co  0.49069678  0.04474812  0.67572995     0.73900
C781        C  0.49980844  0.08124461  0.61175104    -0.05800
C782        C  0.58760620  0.09211379  0.73466024    -0.05400
N783        N  0.53973015  0.00793177  0.64615861    -0.24900
N784        N  0.54147770  0.10013853  0.73140958    -0.45700
H785        H  0.58859581  0.11250849  0.60457515     0.08000
C786        C  0.46073195  0.98481038  0.62264064    -0.05800
Cl787      Cl  0.52456321  0.03902267  0.67801679    -0.48800
C788        C  0.45459956  0.99669915  0.76106490     0.43700
H789        H  0.56681339  0.01355796  0.61177810     0.07900
N790        N  0.45769521  0.01715872  0.61837919    -0.45500
N791        N  0.53226107  0.21692621  0.90595137    -0.02400
C792        C  0.53522905  0.23881792  0.90497162     0.00200
C793        C  0.55011613  0.25427440  0.87809812    -0.22600
C794        C  0.55650852  0.24164394  0.86183058    -0.22900
C795        C  0.54522836  0.21892640  0.87922340     0.00100
H796        H  0.55447339  0.27229347  0.86978991     0.13900
H797        H  0.56701997  0.24787329  0.83873954     0.14000
N798        N  0.73056235  0.18672142  0.93025152    -0.02400
C799        C  0.75282271  0.20736671  0.93177160     0.00200
C800        C  0.76516225  0.21347278  0.90157400    -0.22600
C801        C  0.75003534  0.19598575  0.88103312    -0.22900
C802        C  0.72887462  0.17988364  0.89919829     0.00100
H803        H  0.78329124  0.22886442  0.89516332     0.13900
H804        H  0.75368531  0.19566755  0.85518103     0.14000
C805        C  0.07601162  0.51401078  0.93812113     0.43600
N806        N  0.05099891  0.50921180  0.89827061     0.02500
C807        C  0.05182555  0.59894160  0.79064630    -0.05400
H808        H  0.03947452  0.60301343  0.91694301     0.08000
C809        C  0.95700294  0.51775791  0.91131535    -0.05800
Co810      Co  0.06623325  0.55665393  0.85924297     0.74200
N811        N  0.04559903  0.57980344  0.89206811    -0.24900
Co812      Co  0.01975094  0.56646978  0.85420309     0.74100
C813        C  0.96362321  0.53995822  0.92496610     0.43700
N814        N  0.97878993  0.48145347  0.89388711     0.02100
N815        N  0.99111910  0.54799070  0.88947016     0.02200
N816        N  0.08092257  0.59083723  0.79524188    -0.45800
H817        H  0.09819532  0.55531976  0.92570720     0.07900
N818        N  0.06341997  0.57626399  0.89355162     0.02500
N819        N  0.99443336  0.55251748  0.81604471     0.02200
C820        C  0.97450057  0.54876454  0.77066742     0.43800
N821        N  0.99620084  0.47728056  0.89602497    -0.24400
C822        C  0.08608717  0.54442474  0.80166369    -0.05300
N823        N  0.05635600  0.49720518  0.92203624    -0.45500
N824        N  0.99238776  0.56502485  0.78930884    -0.45700
C825        C  0.07967511  0.52270669  0.78698942     0.43600
N826        N  0.06530473  0.57963314  0.82062585     0.02500
N827        N  0.99875866  0.48194210  0.82217676    -0.24400
N828        N  0.06625003  0.53284768  0.89767381    -0.24900
N829        N  0.98118061  0.48582075  0.82086721     0.02100
H830        H  0.00644855  0.46180129  0.79247770     0.08000
H831        H  0.95067100  0.50734394  0.78202580     0.08000
N832        N  0.04798564  0.58386312  0.81861434    -0.25000
N833        N  0.97511681  0.52451952  0.88967429    -0.24600
N834        N  0.05307254  0.51346286  0.82470837     0.02500
C835        C  0.07278860  0.60114302  0.92990785     0.43900
C836        C  0.99077476  0.46002478  0.92178672    -0.05800
N837        N  0.97873408  0.52901197  0.81629474    -0.24600
H838        H  0.94059906  0.49990759  0.91531144     0.08000
N839        N  0.08010540  0.58885407  0.91554229    -0.45800
H840        H  0.00109467  0.45209031  0.92895929     0.08000
C841        C  0.97350070  0.46456107  0.78017972     0.43700
C842        C  0.08253147  0.53760876  0.92195616    -0.05300
Co843      Co  0.02472169  0.49490370  0.86039166     0.73800
N844        N  0.96154056  0.46791503  0.91687052    -0.45500
C845        C  0.07359461  0.60327261  0.77523335     0.44000
N846        N  0.05904506  0.50412009  0.80267179    -0.45500
Co847      Co  0.97804427  0.50490078  0.85529431     0.73900
C848        C  0.96526466  0.52485108  0.78855494    -0.05800
C849        C  0.04981774  0.59515519  0.91441634    -0.05400
N850        N  0.06868081  0.53698362  0.82463597    -0.24900
N851        N  0.98492971  0.55787309  0.91015595    -0.45700
H852        H  0.04033829  0.60522585  0.78163025     0.08000
C853        C  0.99548336  0.46862495  0.79719241    -0.05800
Cl854      Cl  0.02218383  0.53070288  0.85749859    -0.48800
C855        C  0.96771031  0.45393968  0.93552038     0.43700
H856        H  0.10204203  0.56255649  0.79725620     0.07900
N857        N  0.96572764  0.47563051  0.79650281    -0.45500
N858        N  0.18490684  0.50071289  0.61459131    -0.02400
C859        C  0.20474638  0.49950504  0.61288447     0.00200
C860        C  0.21247578  0.49735918  0.64527079    -0.22600
C861        C  0.19721043  0.49739173  0.66710635    -0.22900
C862        C  0.18043591  0.49935414  0.64772443     0.00100
H863        H  0.22800827  0.49657723  0.65262799     0.13900
H864        H  0.19850364  0.49656166  0.69420571     0.14000
N865        N  0.85605604  0.33197992  0.61610691    -0.02400
C866        C  0.83608399  0.30931929  0.61440282     0.00200
C867        C  0.82343458  0.30090853  0.64472719    -0.22600
C868        C  0.83568357  0.31905829  0.66527462    -0.22900
C869        C  0.85563197  0.33790862  0.64715939     0.00100
H870        H  0.80646533  0.28383138  0.65084333     0.13900
H871        H  0.83046748  0.31860819  0.69061172     0.14000
N872        N  0.86884394  0.56309655  0.56750395    -0.02400
C873        C  0.85029195  0.56647299  0.56574125     0.00200
C874        C  0.84891740  0.57491702  0.59483921    -0.22600
C875        C  0.86707567  0.57686667  0.61524132    -0.22900
C876        C  0.87895315  0.56951910  0.59800249     0.00100
H877        H  0.83586722  0.57899751  0.60070365     0.13900
H878        H  0.87077647  0.58236025  0.64034992     0.14000
N879        N  0.18780728  0.71981361  0.07424594    -0.02400
C880        C  0.20975351  0.74092426  0.07250404     0.00200
C881        C  0.22362910  0.74116417  0.59612231    -0.22600
C882        C  0.20846063  0.72057949  0.61671020    -0.22900
C883        C  0.18691532  0.70825203  0.59993003     0.00100
H884        H  0.24177113  0.75546826  0.60211731     0.13900
H885        H  0.21245253  0.71547613  0.64162047     0.14000
C886        C  0.57975109  0.54402236  0.59568988     0.43600
N887        N  0.56371447  0.55310295  0.63142942     0.02500
C888        C  0.47141161  0.46991722  0.74596999    -0.05400
H889        H  0.44529363  0.46721604  0.61927657     0.08000
C890        C  0.46391452  0.54986324  0.61516710    -0.05800
Co891      Co  0.52788437  0.50856444  0.67545359     0.74200
N892        N  0.47874019  0.48627851  0.64637745    -0.24900
Co893      Co  0.47297459  0.50283110  0.68220444     0.74100
C894        C  0.44483383  0.52682013  0.60358040     0.43700
N895        N  0.52629273  0.58537029  0.63043978     0.02100
N896        N  0.46319510  0.52011169  0.64458799     0.02200
N897        N  0.50715902  0.47363136  0.73991645    -0.45800
H898        H  0.55477510  0.50353701  0.61316201     0.07900
N899        N  0.49991712  0.48906914  0.64321746     0.02500
N900        N  0.46822197  0.52071423  0.71745307     0.02200
C901        C  0.45482717  0.52926096  0.75748728     0.43800
N902        N  0.54744286  0.58781875  0.62810646    -0.24400
C903        C  0.56364884  0.52155156  0.73372473    -0.05300
N904        N  0.58128139  0.56273923  0.60835221    -0.45500
N905        N  0.45276184  0.51080066  0.74337146    -0.45700
C906        C  0.58177078  0.54336874  0.74824845     0.43600
N907        N  0.50445621  0.48771725  0.71635857     0.02500
N908        N  0.55251499  0.58793228  0.70079682    -0.24400
N909        N  0.55128311  0.52928781  0.63506508    -0.24900
N910        N  0.53150708  0.58556706  0.70378133     0.02100
H911        H  0.58642139  0.60739040  0.72665636     0.08000
H912        H  0.47826441  0.56992923  0.73959388     0.08000
N913        N  0.48368717  0.48583731  0.71924978    -0.25000
N914        N  0.47444034  0.54385700  0.64047589    -0.24600
N915        N  0.56725940  0.55295971  0.70475571     0.02500
C916        C  0.47874884  0.46801269  0.60383142     0.43900
C917        C  0.55925621  0.60311157  0.60052920    -0.05800
N918        N  0.47993386  0.54451982  0.71337173    -0.24600
H919        H  0.46887443  0.56798934  0.60624722     0.08000
N920        N  0.50071578  0.47839010  0.61808647    -0.45800
H921        H  0.57739265  0.60937117  0.59267493     0.08000
C922        C  0.55373024  0.60799941  0.74157288     0.43700
C923        C  0.55981125  0.52193782  0.61331301    -0.05300
Co924      Co  0.55833473  0.57099566  0.66601114     0.73800
N925        N  0.52282823  0.59812679  0.60552951    -0.45500
C926        C  0.48708882  0.46191869  0.75967896     0.44000
N927        N  0.58324378  0.56232457  0.72911198    -0.45500
Co928      Co  0.50292418  0.56522878  0.67195708     0.73900
C929        C  0.47278607  0.55157534  0.73759886    -0.05800
C930        C  0.46396061  0.47281842  0.62278204    -0.05400
N931        N  0.55550562  0.52917009  0.70736076    -0.24900
N932        N  0.44547557  0.50926710  0.62302533    -0.45700
H933        H  0.45316198  0.46354716  0.75341075     0.08000
C934        C  0.56783008  0.60209842  0.72334289    -0.05800
Cl935      Cl  0.51554274  0.53695231  0.67389480    -0.48800
C936        C  0.54275491  0.60978748  0.58545932     0.43700
H937        H  0.55707386  0.50292168  0.74221826     0.07900
N938        N  0.53142259  0.59733564  0.72808760    -0.45500
N939        N  0.45902192  0.33818483  0.94225971    -0.02400
C940        C  0.45137889  0.31462456  0.94265885     0.00200
C941        C  0.43434211  0.30070050  0.96822416    -0.22600
C942        C  0.43196123  0.31614306  0.98471811    -0.22900
C943        C  0.44754863  0.33890351  0.96860161     0.00100
H944        H  0.42659222  0.28178026  0.97653998     0.13900
H945        H  0.42278616  0.31392900  0.52050714     0.14000
N946        N  0.32727290  0.51189342  0.93375824    -0.02400
C947        C  0.30657838  0.51176601  0.93374646     0.00200
C948        C  0.29636532  0.50754612  0.90209844    -0.22600
C949        C  0.31095791  0.50486347  0.88250305    -0.22900
C950        C  0.32973186  0.50760733  0.90247463     0.00100
H951        H  0.27967296  0.50584232  0.89403778     0.13900
H952        H  0.30825620  0.50145940  0.85640215     0.14000
N953        N  0.70236033  0.56025234  0.94856620    -0.02400
C954        C  0.72408620  0.56296686  0.94433210     0.00200
C955        C  0.72880336  0.56501499  0.91035278    -0.22600
C956        C  0.70976550  0.56375437  0.89324173    -0.22900
C957        C  0.69400822  0.56100383  0.91713579     0.00100
H958        H  0.74419206  0.56663768  0.89903824     0.13900
H959        H  0.70748702  0.56450104  0.86627321     0.14000
N960        N  0.58289360  0.73260391  0.90958288    -0.02400
C961        C  0.58948986  0.75595809  0.90498639     0.00200
C962        C  0.60430750  0.76781003  0.87667764    -0.22600
C963        C  0.60687228  0.75133826  0.86346397    -0.22900
C964        C  0.59351048  0.72992615  0.88397783     0.00100
H965        H  0.61114695  0.78599701  0.86526647     0.13900
H966        H  0.61610141  0.75426897  0.84014550     0.14000
C967        C  0.41755924  0.53350619  0.82347160     0.17100
C968        C  0.40765858  0.54141308  0.84451255    -0.32000
C969        C  0.38552552  0.52401518  0.86087938     0.21500
C970        C  0.37380469  0.49973799  0.85663935     0.03700
C971        C  0.38395831  0.49174701  0.83604969    -0.21700
C972        C  0.40604399  0.50922428  0.81941142     0.12800
S973        S  0.44332565  0.55210091  0.79970019    -0.05400
C974        C  0.43869004  0.52701973  0.78386854    -0.08800
C975        C  0.41821197  0.50534240  0.79683686    -0.25400
S976        S  0.34584144  0.48191805  0.87567729    -0.02600
C977        C  0.35011182  0.50738692  0.88970819    -0.16100
C978        C  0.37212380  0.52846644  0.88011708    -0.14100
H979        H  0.41645374  0.56042933  0.84715105     0.21300
H980        H  0.37462900  0.47285994  0.83223151     0.17300
H981        H  0.41219034  0.48781661  0.78944473     0.19800
H982        H  0.37723745  0.54631061  0.88485417     0.13200
C983        C  0.37402167  0.52861962  0.50242660     0.17100
C984        C  0.39239240  0.54120494  0.52529132    -0.32000
C985        C  0.40272655  0.52945919  0.54243751     0.21500
C986        C  0.39483893  0.50601306  0.53752120     0.03700
C987        C  0.37653397  0.49342450  0.51445734    -0.21700
C988        C  0.36646152  0.50535504  0.49687748     0.12800
S989        S  0.35976231  0.54012274  0.47859338    -0.05400
C990        C  0.34351230  0.51517611  0.96092121    -0.08800
C991        C  0.34628678  0.49686505  0.97504133    -0.25400
S992        S  0.40936225  0.49482945  0.56147400    -0.02600
C993        C  0.42649274  0.52219469  0.57777474    -0.16100
C994        C  0.42104682  0.53892228  0.56527520    -0.14100
H995        H  0.39852079  0.55946522  0.52932364     0.21300
H996        H  0.37054054  0.47523131  0.51023767     0.17300
H997        H  0.33559903  0.47849980  0.96855827     0.19800
H998        H  0.42975118  0.55690474  0.57285379     0.13200
C999        C  0.58510129  0.65636207  0.80219291     0.17100
C1000       C  0.60119489  0.67715280  0.81781642    -0.32000
C1001       C  0.59151699  0.68358175  0.84150034     0.23000
C1002       C  0.56711769  0.66940834  0.85029527     0.03700
C1003       C  0.55110309  0.64838282  0.83512457    -0.21700
C1004       C  0.56057003  0.64255677  0.81033928     0.12800
S1005       S  0.59284687  0.64687058  0.77046995    -0.05400
C1006       C  0.56261062  0.62464288  0.76739833    -0.08800
C1007       C  0.54751309  0.62435737  0.79025908    -0.25400
S1008       S  0.55840747  0.68167462  0.87647614    -0.02600
C1009       C  0.58771638  0.70662098  0.87462429    -0.16100
C1010       C  0.60347340  0.70487592  0.85561714    -0.14100
H1011       H  0.62015942  0.68852544  0.81048082     0.21300
H1012       H  0.53187951  0.63783879  0.84093709     0.17300
H1013       H  0.52802399  0.61179047  0.79168686     0.19800
H1014       H  0.62220040  0.71928529  0.85011814     0.13200
C1015       C  0.54535036  0.65514298  0.51305304     0.17100
C1016       C  0.54034769  0.66875188  0.48846073    -0.32000
C1017       C  0.56002251  0.68911366  0.47033745     0.21500
C1018       C  0.58359217  0.69557892  0.47663888     0.03700
C1019       C  0.58854001  0.68176745  0.50077316    -0.21700
C1020       C  0.56889887  0.66138819  0.51873867     0.12800
S1021       S  0.52420125  0.63038815  0.53859554    -0.05400
C1022       C  0.54726470  0.62823939  0.55693804    -0.08800
C1023       C  0.57009586  0.64586434  0.54354213    -0.25400
S1024       S  0.60029071  0.72028746  0.96645305    -0.02600
C1025       C  0.57728387  0.71800732  0.94133606    -0.16100
C1026       C  0.55470595  0.69711926  0.94897864    -0.14100
H1027       H  0.52193418  0.66369401  0.48369409     0.21300
H1028       H  0.60693370  0.68667303  0.50527757     0.17300
H1029       H  0.58676058  0.64764203  0.55209144     0.19800
H1030       H  0.53853496  0.69206977  0.93463476     0.13200
C1031       C  0.61183409  0.53464779  0.82777920     0.17100
C1032       C  0.62110342  0.52568063  0.85304670    -0.32000
C1033       C  0.63857213  0.54196429  0.87398279     0.21500
C1034       C  0.64594389  0.56600070  0.87074500     0.03700
C1035       C  0.63603519  0.57484455  0.84602044    -0.21700
C1036       C  0.61917619  0.55869231  0.82412729     0.12800
S1037       S  0.59273203  0.51819335  0.79772551    -0.05400
C1038       C  0.59476910  0.54394889  0.77941792    -0.08800
C1039       C  0.60934287  0.56420060  0.79622628    -0.25400
S1040       S  0.67041427  0.58361617  0.89453008    -0.02600
C1041       C  0.67103138  0.55846437  0.90801493    -0.16100
C1042       C  0.65260538  0.53748990  0.89573417    -0.14100
H1043       H  0.61607587  0.50715209  0.85488890     0.21300
H1044       H  0.64241992  0.59378867  0.84252152     0.17300
H1045       H  0.61288643  0.58194767  0.78816427     0.19800
H1046       H  0.65158110  0.52059991  0.89896245     0.13200
C1047       C  0.66699456  0.56893087  0.51310260     0.17100
C1048       C  0.65595222  0.57810248  0.52946516    -0.32000
C1049       C  0.63417147  0.56139907  0.54736483     0.21500
C1050       C  0.62416295  0.53676117  0.54918002     0.03700
C1051       C  0.63549982  0.52768958  0.53372209    -0.21700
C1052       C  0.65700960  0.54427694  0.51563000     0.12800
S1053       S  0.69116755  0.58559002  0.48566379    -0.05400
C1054       C  0.69043819  0.55862872  0.97871430    -0.08800
C1055       C  0.66948052  0.53728120  0.99115685    -0.25400
S1056       S  0.59706746  0.51923540  0.56999206    -0.02600
C1057       C  0.59901660  0.54524218  0.57678567    -0.16100
C1058       C  0.61981558  0.56642959  0.56344002    -0.14100
H1059       H  0.66341430  0.59729936  0.52711318     0.21300
H1060       H  0.62541470  0.50520600  0.02504868     0.17300
H1061       H  0.66287946  0.51982729  0.98295489     0.19800
H1062       H  0.62402553  0.58442626  0.56503574     0.13200
C1063       C  0.46334011  0.40992001  0.83113574     0.17100
C1064       C  0.44971784  0.39150778  0.85683065    -0.32000
C1065       C  0.46020070  0.37990713  0.87393619     0.21500
C1066       C  0.48325992  0.38616809  0.86603098     0.03700
C1067       C  0.49693554  0.40462293  0.84002718    -0.21700
C1068       C  0.48641045  0.41635307  0.82284699     0.12800
S1069       S  0.45377955  0.42634461  0.80802247    -0.05400
C1070       C  0.48113979  0.44226000  0.78673230    -0.08800
C1071       C  0.49674036  0.43496111  0.79721436    -0.25400
S1072       S  0.49270294  0.37009284  0.89117644    -0.02600
C1073       C  0.46522908  0.35497227  0.91230529    -0.16100
C1074       C  0.44983027  0.36209077  0.90012761    -0.14100
H1075       H  0.43176133  0.38657660  0.86345730     0.21300
H1076       H  0.51501877  0.40978318  0.83372064     0.17300
H1077       H  0.51468936  0.44292408  0.78676868     0.19800
H1078       H  0.43206095  0.35491318  0.91062424     0.13200
C1079       C  0.46937278  0.40073299  0.50776097     0.17100
C1080       C  0.48439043  0.42330844  0.51968473    -0.32000
C1081       C  0.47403384  0.43005359  0.54180416     0.21500
C1082       C  0.44963642  0.41543093  0.55068545     0.03700
C1083       C  0.43461554  0.39293373  0.53862311    -0.21700
C1084       C  0.44515869  0.38580480  0.51748458     0.12800
S1085       S  0.48362384  0.38481040  0.98484988    -0.05400
C1086       C  0.45390769  0.36130691  0.98164330    -0.08800
C1087       C  0.43412900  0.36367312  0.50598987    -0.25400
S1088       S  0.44074505  0.42633683  0.57894904    -0.02600
C1089       C  0.47038083  0.45031631  0.57975510    -0.16100
C1090       C  0.48608773  0.45014319  0.55856404    -0.14100
H1091       H  0.50350384  0.43464049  0.51316334     0.21300
H1092       H  0.41578662  0.38108492  0.54648833     0.17300
H1093       H  0.41561399  0.34889928  0.51195240     0.19800
H1094       H  0.50540605  0.46355006  0.55646803     0.13200
C1095       C  0.79392959  0.54544996  0.51315721     0.17100
C1096       C  0.76997577  0.53201192  0.50183089    -0.32000
C1097       C  0.77620239  0.56645453  0.98645230     0.21500
C1098       C  0.76044189  0.55073227  0.01239830     0.03700
C1099       C  0.76851707  0.54130885  0.03905251    -0.21700
C1100       C  0.79284988  0.54836443  0.03821252     0.12800
S1101       S  0.80984819  0.53356074  0.53072984    -0.05400
C1102       C  0.83317177  0.56232539  0.53812312    -0.08800
C1103       C  0.80449419  0.54262786  0.06287206    -0.25400
S1104       S  0.73141286  0.54401368  0.00771327    -0.02600
C1105       C  0.74071292  0.56253504  0.97027204    -0.16100
C1106       C  0.76513208  0.57348598  0.96269986    -0.14100
H1107       H  0.76031044  0.51262108  0.50174899     0.21300
H1108       H  0.75646759  0.52922258  0.05970963     0.17300
H1109       H  0.79604837  0.53200119  0.08654808     0.19800
H1110       H  0.72408700  0.51627679  0.47336542     0.13200
C1111       C  0.23716767  0.50882632  0.52859190     0.17100
C1112       C  0.24669825  0.51498272  0.49566101    -0.32000
C1113       C  0.26429816  0.51318797  0.98868172     0.21500
C1114       C  0.27577183  0.50871050  0.01561476     0.03700
C1115       C  0.26666694  0.50396249  0.04843307    -0.21700
C1116       C  0.24536566  0.50335934  0.05274132     0.12800
S1117       S  0.21450623  0.51143757  0.54182288    -0.05400
C1118       C  0.21765103  0.50100614  0.58217040    -0.08800
C1119       C  0.23312682  0.49773377  0.08241666    -0.25400
S1120       S  0.29994749  0.50784672  0.00452507    -0.02600
C1121       C  0.29447277  0.51330477  0.96288947    -0.16100
C1122       C  0.27509167  0.51615878  0.95864210    -0.14100
H1123       H  0.23965932  0.52176051  0.47559802     0.21300
H1124       H  0.27533166  0.50009242  0.06959261     0.17300
H1125       H  0.23937805  0.49375467  0.10622257     0.19800
H1126       H  0.27254876  0.52312853  0.43623325     0.13200
C1127       C  0.95263674  0.57317268  0.69579093     0.17100
C1128       C  0.94604501  0.58675689  0.67427977    -0.32000
C1129       C  0.92790404  0.57469192  0.65085903     0.21500
C1130       C  0.91751026  0.55041591  0.64784121     0.03700
C1131       C  0.92437596  0.53688743  0.66906584    -0.21700
C1132       C  0.94175993  0.54872033  0.69354594     0.12800
S1133       S  0.97231850  0.58392952  0.72824004    -0.05400
C1134       C  0.96514529  0.55500997  0.73976754    -0.08800
C1135       C  0.94888928  0.53817369  0.71879075    -0.25400
S1136       S  0.89424817  0.53867376  0.61996089    -0.02600
C1137       C  0.89796756  0.56649425  0.61344303    -0.16100
C1138       C  0.91674944  0.58398231  0.63119155    -0.14100
H1139       H  0.95377016  0.60560368  0.67691909     0.21300
H1140       H  0.91559140  0.51770304  0.66779256     0.17300
H1141       H  0.94208587  0.51912144  0.72239322     0.19800
H1142       H  0.92084024  0.60206110  0.63151525     0.13200
C1143       C  0.93512488  0.56010326  0.98309961     0.17100
C1144       C  0.93103670  0.57278011  0.00425830    -0.32000
C1145       C  0.90783296  0.56144635  0.01844280     0.21500
C1146       C  0.88919973  0.53851307  0.01161796     0.03700
C1147       C  0.89331737  0.52569728  0.99033508    -0.21700
C1148       C  0.91681881  0.53699070  0.97644422     0.12800
S1149       S  0.96227749  0.57097375  0.96411179    -0.05400
C1150       C  0.94930109  0.54405808  0.94713841    -0.08800
C1151       C  0.92492287  0.52755682  0.95585041    -0.25400
S1152       S  0.86258431  0.52782879  0.03282893    -0.02600
C1153       C  0.87707120  0.55442695  0.05125368    -0.16100
C1154       C  0.90101936  0.57056803  0.04105843    -0.14100
H1155       H  0.94550251  0.59065920  0.00986364     0.21300
H1156       H  0.87899586  0.50761557  0.98531300     0.17300
H1157       H  0.91374446  0.50976466  0.94745613     0.19800
H1158       H  0.91676087  0.59034625  0.54543601     0.13200
C1159       C  0.89309108  0.39428313  0.69368548     0.17100
C1160       C  0.90059656  0.41170374  0.71593436    -0.32000
C1161       C  0.92494890  0.42436905  0.72540609     0.21500
C1162       C  0.94132941  0.42027035  0.71288842     0.03700
C1163       C  0.93397506  0.40338018  0.68958963    -0.21700
C1164       C  0.90941109  0.39032938  0.68052775     0.12800
S1165       S  0.86369441  0.37482488  0.68314481    -0.05400
C1166       C  0.87327863  0.36109974  0.66057960    -0.08800
C1167       C  0.89814606  0.37147267  0.66093697    -0.25400
S1168       S  0.96956165  0.43605797  0.73021146    -0.02600
C1169       C  0.95901970  0.44816874  0.75450175    -0.16100
C1170       C  0.93505481  0.44054759  0.74881181    -0.14100
H1171       H  0.88774743  0.41445413  0.72665769     0.21300
H1172       H  0.94656600  0.39979103  0.68014206     0.17300
H1173       H  0.90721014  0.36455134  0.64946261     0.19800
H1174       H  0.92521363  0.44587135  0.76210357     0.13200
C1175       C  0.91862240  0.40760649  0.99975289     0.17100
C1176       C  0.89782900  0.39420563  0.02023327    -0.32000
C1177       C  0.89585570  0.37597180  0.04382622     0.21500
C1178       C  0.91372930  0.37103210  0.04680061     0.03700
C1179       C  0.93461412  0.38442562  0.02601590    -0.21700
C1180       C  0.93668742  0.40294618  0.00246123     0.12800
S1181       S  0.92425268  0.43082368  0.97052581    -0.05400
C1182       C  0.95139046  0.43467836  0.96152624    -0.08800
C1183       C  0.95571395  0.41852235  0.98035271    -0.25400
S1184       S  0.90791510  0.34840524  0.07785257    -0.02600
C1185       C  0.87337824  0.34767662  0.58989328    -0.16100
C1186       C  0.87710428  0.36979590  0.57821178    -0.14100
H1187       H  0.88388090  0.39805607  0.01813715     0.21300
H1188       H  0.94870494  0.38078214  0.02839411     0.17300
H1189       H  0.97181042  0.41827644  0.97815058     0.19800
H1190       H  0.86679052  0.37652015  0.58639027     0.13200
C1191       C  0.12809260  0.52676143  0.73224708     0.17100
C1192       C  0.14943546  0.53418278  0.71512405    -0.32000
C1193       C  0.14908053  0.51788216  0.69575159     0.21500
C1194       C  0.12838862  0.49509260  0.69341384     0.03700
C1195       C  0.10699250  0.48750287  0.71097430    -0.21700
C1196       C  0.10735809  0.50389937  0.73049860     0.12800
S1197       S  0.12505858  0.54427053  0.75647793    -0.05400
C1198       C  0.09552189  0.52059893  0.76494955    -0.08800
C1199       C  0.08854450  0.50016137  0.74950553    -0.25400
S1200       S  0.13223482  0.47792567  0.66910743    -0.02600
C1201       C  0.16193199  0.50178727  0.66217983    -0.16100
C1202       C  0.16833281  0.52172240  0.67815360    -0.14100
H1203       H  0.16567562  0.55194091  0.71687393     0.21300
H1204       H  0.09085725  0.46962628  0.70959788     0.17300
H1205       H  0.07069469  0.48361439  0.75184036     0.19800
H1206       H  0.18644822  0.53787474  0.67790443     0.13200
C1207       C  0.10823866  0.49256271  0.00109881     0.17100
C1208       C  0.11518117  0.47926967  0.02267498    -0.32000
C1209       C  0.13595705  0.49209105  0.04201904     0.21500
C1210       C  0.14944673  0.51712094  0.03991403     0.03700
C1211       C  0.14258086  0.53045768  0.01810156    -0.21700
C1212       C  0.12163533  0.51756852  0.99890130     0.12800
S1213       S  0.08317417  0.48025820  0.97628373    -0.05400
C1214       C  0.09065362  0.50907034  0.96276385    -0.08800
C1215       C  0.11164608  0.52714512  0.97688972    -0.25400
S1216       S  0.17357281  0.52911146  0.06662448    -0.02600
C1217       C  0.16534123  0.50007459  0.08036478    -0.16100
C1218       C  0.15057743  0.48524046  0.57537660    -0.14100
H1219       H  0.10464133  0.45972717  0.02464909     0.21300
H1220       H  0.15289089  0.54998131  0.01652570     0.17300
H1221       H  0.11915840  0.54629551  0.97155694     0.19800
H1222       H  0.14295658  0.46635617  0.58378718     0.13200
C1223       C  0.10247227  0.64361852  0.69288426     0.17100
C1224       C  0.11170458  0.66200819  0.66600516    -0.32000
C1225       C  0.13153798  0.66631498  0.64784387     0.21500
C1226       C  0.14126606  0.65248439  0.65546275     0.03700
C1227       C  0.13165446  0.63375479  0.68166362    -0.21700
C1228       C  0.11242741  0.63000222  0.70043488     0.12800
S1229       S  0.08038791  0.63726228  0.72063631    -0.05400
C1230       C  0.08525733  0.61658108  0.74283518    -0.08800
C1231       C  0.10258148  0.61446094  0.72893799    -0.25400
S1232       S  0.16736919  0.66265329  0.63419987    -0.02600
C1233       C  0.16542938  0.68600908  0.61513788    -0.16100
C1234       C  0.14525166  0.68548799  0.62428659    -0.14100
H1235       H  0.10466597  0.67333975  0.66071212     0.21300
H1236       H  0.13979760  0.62354238  0.68848326     0.17300
H1237       H  0.10829097  0.60270561  0.73979885     0.19800
H1238       H  0.14226732  0.69980997  0.61698610     0.13200
C1239       C  0.10724204  0.65236355  0.98714364     0.17100
C1240       C  0.11449566  0.66931002  0.01027173    -0.32000
C1241       C  0.13900757  0.68240083  0.01943596     0.21500
C1242       C  0.15562978  0.67911560  0.00562966     0.03700
C1243       C  0.14837127  0.66216732  0.98267500    -0.21700
C1244       C  0.12383560  0.64874670  0.97410389     0.12800
S1245       S  0.07826336  0.63406905  0.97334073    -0.05400
C1246       C  0.08860742  0.62106659  0.95049815    -0.08800
C1247       C  0.11323912  0.63075444  0.95333236    -0.25400
S1248       S  0.18425572  0.69585285  0.02088133    -0.02600
C1249       C  0.17373023  0.70715696  0.04655370    -0.16100
C1250       C  0.14931938  0.69843720  0.04319980    -0.14100
H1251       H  0.10151857  0.67181390  0.02117764     0.21300
H1252       H  0.16121016  0.65915592  0.97252175     0.17300
H1253       H  0.12292567  0.62489474  0.94084154     0.19800
H1254       H  0.13883938  0.70103057  0.55568041     0.13200
C1255       C  0.81009464  0.28098640  0.53120530     0.17100
C1256       C  0.80219891  0.27589716  0.49819547    -0.32000
C1257       C  0.78610395  0.25150990  0.49264648     0.21500
C1258       C  0.77797033  0.23307848  0.51879412     0.03700
C1259       C  0.78587452  0.23817113  0.55165594    -0.21700
C1260       C  0.80213978  0.26244466  0.55712307     0.12800
S1261       S  0.82929804  0.30926642  0.54374201    -0.05400
C1262       C  0.82664505  0.29586613  0.58434087    -0.08800
C1263       C  0.81158405  0.27082307  0.58739720    -0.25400
S1264       S  0.75758427  0.20745560  0.00217101    -0.02600
C1265       C  0.76356518  0.22102650  0.96135065    -0.16100
C1266       C  0.78145975  0.24559584  0.95827369    -0.14100
H1267       H  0.80841555  0.29026151  0.47774421     0.21300
H1268       H  0.77971092  0.22380306  0.57209741     0.17300
H1269       H  0.80728447  0.25925855  0.61085737     0.19800
H1270       H  0.78796669  0.25706370  0.93466437     0.13200
C1271       C  0.49600730  0.29703300  0.93054016     0.17100
C1272       C  0.51616688  0.29526588  0.93313284    -0.32000
C1273       C  0.51229089  0.27260727  0.93083953     0.21500
C1274       C  0.48939043  0.25250014  0.92622280     0.03700
C1275       C  0.46911018  0.25418484  0.92411788    -0.21700
C1276       C  0.47302893  0.27694506  0.92622158     0.12800
S1277       S  0.49686602  0.32272005  0.93408401    -0.05400
C1278       C  0.46582689  0.30626199  0.93028420    -0.08800
C1279       C  0.45566791  0.28217440  0.92581052    -0.25400
S1280       S  0.48916429  0.22749091  0.91976372    -0.02600
C1281       C  0.52031394  0.24450432  0.92259485    -0.16100
C1282       C  0.52993088  0.26798025  0.92952763    -0.14100
H1283       H  0.53416696  0.31096043  0.93633805     0.21300
H1284       H  0.45116604  0.23859032  0.92031819     0.17300
H1285       H  0.43638959  0.26879083  0.92485246     0.19800
H1286       H  0.54914699  0.28177028  0.92966383     0.13200
C1287       C  0.65140358  0.11100302  0.53614871     0.17100
C1288       C  0.67142603  0.11641082  0.51729115    -0.32000
C1289       C  0.68407681  0.13877920  0.49731459     0.21500
C1290       C  0.67720089  0.15508599  0.49627933     0.03700
C1291       C  0.65701590  0.14950781  0.51468233    -0.21700
C1292       C  0.64437911  0.12718996  0.53455706     0.12800
S1293       S  0.63402712  0.08528272  0.56296861    -0.05400
C1294       C  0.61728137  0.09663394  0.57212749    -0.08800
C1295       C  0.62475051  0.11896563  0.55485067    -0.25400
S1296       S  0.69498247  0.18139387  0.47091005    -0.02600
C1297       C  0.71153286  0.17008408  0.46111898    -0.16100
C1298       C  0.70375396  0.14726705  0.47682691    -0.14100
H1299       H  0.67698146  0.10383260  0.51828881     0.21300
H1300       H  0.65149399  0.16211060  0.51375741     0.17300
H1301       H  0.61658482  0.12898338  0.55745946     0.19800
H1302       H  0.71188915  0.13739701  0.47300291     0.13200
C1303       C  0.65427802  0.10700985  0.80972907     0.17100
C1304       C  0.67726245  0.11660646  0.82411473    -0.32000
C1305       C  0.68389069  0.13272676  0.84831888     0.21500
C1306       C  0.66800473  0.13824424  0.85865409     0.03700
C1307       C  0.64510848  0.12861509  0.84442173    -0.21700
C1308       C  0.63888067  0.11334632  0.81935602     0.12800
S1309       S  0.64330979  0.08869290  0.77801669    -0.05400
C1310       C  0.61832939  0.09060674  0.77700939    -0.08800
C1311       C  0.61837721  0.10415223  0.80053327    -0.25400
S1312       S  0.67962475  0.15896375  0.88695171    -0.02600
C1313       C  0.70649567  0.16084773  0.88430270    -0.16100
C1314       C  0.70616774  0.14584501  0.86283678    -0.14100
H1315       H  0.68974825  0.11246338  0.81587540     0.21300
H1316       H  0.63305466  0.13362082  0.85157871     0.17300
H1317       H  0.60437048  0.10758274  0.80315596     0.19800
H1318       H  0.72166436  0.14528499  0.85723691     0.13200
C1319       C  0.51017495  0.16977460  0.48865401     0.17100
C1320       C  0.49858315  0.15070010  0.51478452    -0.32000
C1321       C  0.51230941  0.14242000  0.53193997     0.21500
C1322       C  0.53650661  0.15302654  0.52373593     0.03700
C1323       C  0.54800882  0.17201359  0.49800913    -0.21700
C1324       C  0.53431826  0.17997488  0.48069576     0.12800
S1325       S  0.49676873  0.18167899  0.46280182    -0.05400
C1326       C  0.52776121  0.20041489  0.93570848    -0.08800
C1327       C  0.54230343  0.19738093  0.45388046    -0.25400
S1328       S  0.55028088  0.14078681  0.54685034    -0.02600
C1329       C  0.52319755  0.12071211  0.56785834    -0.16100
C1330       C  0.50446216  0.12363069  0.55735211    -0.14100
H1331       H  0.47965852  0.14238412  0.52098051     0.21300
H1332       H  0.56680597  0.18000109  0.49134898     0.17300
H1333       H  0.56037805  0.20701247  0.44305718     0.19800
H1334       H  0.48625232  0.11277188  0.56783377     0.13200
C1335       C  0.51654009  0.13234134  0.80922058     0.17100
C1336       C  0.50885861  0.14250246  0.82982223    -0.32000
C1337       C  0.52673395  0.16396665  0.84278087     0.21500
C1338       C  0.55113963  0.17483837  0.83552703     0.03700
C1339       C  0.55882534  0.16443205  0.81552583    -0.21700
C1340       C  0.54098610  0.14306493  0.80251048     0.12800
S1341       S  0.49774433  0.10714639  0.78940595    -0.05400
C1342       C  0.52317325  0.11122547  0.77206064    -0.08800
C1343       C  0.54489545  0.13093940  0.78136002    -0.25400
S1344       S  0.56980043  0.20213806  0.85038358    -0.02600
C1345       C  0.54449182  0.19877020  0.86678125    -0.16100
C1346       C  0.52285324  0.17748862  0.86131563    -0.14100
H1347       H  0.48978752  0.13441586  0.83477280     0.21300
H1348       H  0.57783299  0.17302840  0.80947564     0.17300
H1349       H  0.56260711  0.13640792  0.77253442     0.19800
H1350       H  0.50514343  0.17305301  0.86836273     0.13200
C1351       C  0.27390752  0.83894577  0.00001137     0.17100
C1352       C  0.27228819  0.81995693  0.51334151    -0.32000
C1353       C  0.24867412  0.79742021  0.02171015     0.21500
C1354       C  0.22811660  0.79778720  0.01475106     0.03700
C1355       C  0.23008926  0.81895337  0.99980898    -0.21700
C1356       C  0.25351885  0.83952941  0.99270849     0.12800
S1357       S  0.30010951  0.86749691  0.48819918    -0.05400
C1358       C  0.28441878  0.87748100  0.97346265    -0.08800
C1359       C  0.25944864  0.86168745  0.97747922    -0.25400
S1360       S  0.20172563  0.77159354  0.02886331    -0.02600
C1361       C  0.21883675  0.76053717  0.04494866    -0.16100
C1362       C  0.24452253  0.77774458  0.53606227    -0.14100
H1363       H  0.28849518  0.82026121  0.52031762     0.21300
H1364       H  0.21415735  0.81948227  0.99451401     0.17300
H1365       H  0.24632820  0.86583971  0.96826638     0.19800
H1366       H  0.25842313  0.77499534  0.54623944     0.13200
C1367       C  0.37168036  0.93704430  0.50548068     0.17100
C1368       C  0.39133142  0.94011070  0.52488743    -0.32000
C1369       C  0.40317668  0.95969209  0.54426110     0.21500
C1370       C  0.39601623  0.97570852  0.54392417     0.03700
C1371       C  0.37624687  0.97251043  0.52477938    -0.21700
C1372       C  0.36415305  0.95270991  0.50590227     0.12800
S1373       S  0.35546404  0.91503330  0.47925120    -0.05400
C1374       C  0.33749402  0.92626866  0.47022004    -0.08800
C1375       C  0.34457279  0.94660889  0.48575164    -0.25400
S1376       S  0.41299379  0.99856163  0.56860539    -0.02600
C1377       C  0.42965593  0.98618499  0.58012961    -0.16100
C1378       C  0.42242356  0.96555302  0.56512938    -0.14100
H1379       H  0.39715806  0.92781472  0.52483924     0.21300
H1380       H  0.37051148  0.98489214  0.52465260     0.17300
H1381       H  0.33612023  0.95670145  0.48175597     0.19800
H1382       H  0.43075442  0.95535072  0.56928934     0.13200
C1383       C  0.38139815  0.97504776  0.86682849     0.17100
C1384       C  0.39725423  0.99171465  0.84099098    -0.32000
C1385       C  0.41319027  0.98704802  0.82747138     0.21500
C1386       C  0.41390795  0.96712614  0.83986878     0.03700
C1387       C  0.39875894  0.95101688  0.86661469    -0.21700
C1388       C  0.38230373  0.95526421  0.87939572     0.12800
S1389       S  0.35758753  0.97482649  0.88186231    -0.05400
C1390       C  0.34880919  0.94782398  0.90517658    -0.08800
C1391       C  0.36383601  0.93977736  0.90177164    -0.25400
S1392       S  0.43256131  0.96316821  0.81775602    -0.02600
C1393       C  0.43925116  0.98844946  0.79130504    -0.16100
C1394       C  0.42795721  0.99953759  0.79979527    -0.14100
H1395       H  0.39610702  0.00676578  0.83037531     0.21300
H1396       H  0.39872765  0.93503046  0.87563829     0.17300
H1397       H  0.36002581  0.92229909  0.91237563     0.19800
H1398       H  0.42961416  0.01525995  0.78557321     0.13200
C1399       C  0.54990090  0.77597489  0.93529249     0.17100
C1400       C  0.53044717  0.77788751  0.94217239    -0.32000
C1401       C  0.53444330  0.80108270  0.93767223     0.21500
C1402       C  0.55670969  0.82139275  0.92693417     0.03700
C1403       C  0.57613781  0.81949742  0.92059420    -0.21700
C1404       C  0.57219627  0.79643946  0.92508160     0.12800
S1405       S  0.54855731  0.74950699  0.93573798    -0.05400
C1406       C  0.57825651  0.76634180  0.92141506    -0.08800
C1407       C  0.58854346  0.79108760  0.91796104    -0.25400
S1408       S  0.55826288  0.84797771  0.92417405    -0.02600
C1409       C  0.52875161  0.83180749  0.93859142    -0.16100
C1410       C  0.51826852  0.80693528  0.94411444    -0.14100
H1411       H  0.52001061  0.76985586  0.44036472     0.21300
H1412       H  0.59358514  0.83533305  0.91224451     0.17300
H1413       H  0.60662272  0.80453471  0.90817189     0.19800
H1414       H  0.50933722  0.80253388  0.44762556     0.13200
C1415       C  0.51315274  0.94676038  0.53350452     0.17100
C1416       C  0.50238099  0.92747196  0.51396545    -0.32000
C1417       C  0.51765144  0.92256902  0.49916651     0.21500
C1418       C  0.54265057  0.93697650  0.50212997     0.03700
C1419       C  0.55349474  0.95689341  0.52053192    -0.21700
C1420       C  0.53813116  0.96103585  0.53676937     0.12800
S1421       S  0.49747886  0.95255710  0.55874097    -0.05400
C1422       C  0.52483270  0.97385538  0.57455240    -0.08800
C1423       C  0.54497008  0.97692731  0.56001041    -0.25400
S1424       S  0.55769684  0.92584142  0.48697629    -0.02600
C1425       C  0.52998710  0.90131572  0.47746639    -0.16100
C1426       C  0.51031289  0.90211144  0.48479997    -0.14100
H1427       H  0.48285569  0.91559629  0.51268717     0.21300
H1428       H  0.57288273  0.96744763  0.52434040     0.17300
H1429       H  0.56348357  0.98888802  0.56767815     0.19800
H1430       H  0.49158129  0.88740577  0.48272175     0.13200
C1431       C  0.51703696  0.92283038  0.82436636     0.17100
C1432       C  0.50665246  0.90035352  0.84366910    -0.32000
C1433       C  0.52127163  0.89698607  0.86717838     0.21500
C1434       C  0.54531071  0.91514219  0.87129814     0.03700
C1435       C  0.55592146  0.93760537  0.85139405    -0.21700
C1436       C  0.54115565  0.94104074  0.82790078     0.12800
S1437       S  0.50166381  0.93058220  0.79598437    -0.05400
C1438       C  0.52797633  0.95867235  0.78807140    -0.08800
C1439       C  0.54762348  0.96174285  0.80690640    -0.25400
S1440       S  0.55882543  0.90828019  0.90440088    -0.02600
C1441       C  0.53168278  0.88082801  0.91281015    -0.16100
C1442       C  0.51354494  0.87723969  0.89044096    -0.14100
H1443       H  0.48770670  0.88632124  0.84123841     0.21300
H1444       H  0.57456400  0.95201457  0.85488345     0.17300
H1445       H  0.56553131  0.97821863  0.80553010     0.19800
H1446       H  0.49492303  0.86196977  0.89332592     0.13200
loop_ 
_geom_bond_atom_site_label_1 
_geom_bond_atom_site_label_2 
_geom_bond_distance 
_geom_bond_site_symmetry_2 
_ccdc_geom_bond_type 
N1            C2   1.358       .  A
N1          C728   1.351       .  A
N1          C718   1.438       .  S
C2          C686   1.473       .  S
C2          C726   1.386       .  A
C3            C4   1.370       .  A
C3          C725   1.386       .  A
C3            H6   1.082       .  S
C4            C5   1.378       .  A
C4            H7   1.082   1_556  S
C5          N724   1.356       .  A
C5          C702   1.472       .  S
N8           C12   1.352       .  A
N8            C9   1.360       .  A
N8         C1374   1.442       .  S
C9          C635   1.484       .  S
C9           C10   1.388       .  A
C10          C11   1.376       .  A
C10          H13   1.082       .  S
C11          C12   1.378       .  A
C11          H14   1.082       .  S
C12         C667   1.469       .  S
C15          N33   1.350       .  A
C15          C52   1.465       .  S
C15         C715   1.481       .  S
N16          N33   1.326       .  A
N16          N38   1.320   1_565  A
N16         Co53   2.088       .  S
C17          N42   1.339       .  A
C17          C55   1.458       .  S
C17          H62   1.081       .  S
H18          C59   1.082       .  S
C19          N43   1.339       .  A
C19          C23   1.455       .  S
C19          H48   1.081       .  S
Co20         N38   2.100       .  S
Co20         N28   2.096       .  S
Co20         N60   2.097       .  S
Co20         N36   2.096       .  S
Co20        Cl64   2.470       .  S
N21          C59   1.340       .  A
N21          N28   1.322       .  A
N21         Co22   2.092       .  S
Co22         N25   2.086       .  S
Co22         N42   2.083       .  S
Co22         N29   2.097       .  S
Co22        Cl64   2.438       .  S
C23          N61   1.351       .  A
C23         C619   1.469       .  S
N24          N31   1.321       .  A
N24          N54   1.321       .  A
N24         Co57   2.078       .  S
N25          N43   1.318       .  A
N25          N61   1.326       .  A
N26          C55   1.353       .  A
N26          N36   1.328       .  A
H27          C52   1.081   1_545  S
N28          N49   1.328       .  A
N29          N47   1.322       .  A
N29          N34   1.324       .  A
C30          N34   1.350       .  A
C30          C58   1.465       .  S
C30         C606   1.479       .  S
N31          C46   1.343   1_545  A
N31         Co53   2.088   1_545  S
C32          N60   1.345       .  A
C32          C35   1.463   1_545  S
C32          H66   1.081       .  S
C35          N56   1.347       .  A
C35         C699   1.471       .  S
N36          N42   1.320       .  A
N37          C63   1.337   1_545  A
N37          N39   1.320       .  A
N37         Co53   2.084   1_545  S
N38          C52   1.346   1_545  A
N39          N67   1.328       .  A
N39         Co57   2.086       .  S
H40          C63   1.081       .  S
H41          C58   1.082       .  S
N43         Co57   2.076       .  S
N44          N56   1.323       .  A
N44          N60   1.321   1_565  A
N44         Co53   2.082       .  S
C45          N49   1.352       .  A
C45          C59   1.457       .  S
C45         C587   1.473       .  S
C46          C65   1.461       .  S
C46          H50   1.082       .  S
N47          C58   1.348       .  A
N47         Co57   2.097       .  S
C51          N67   1.352   1_565  A
C51          C63   1.456       .  S
C51         C654   1.474       .  S
Co53        Cl64   2.440   1_565  S
N54          C65   1.346   1_545  A
C55         C571   1.476       .  S
Co57        Cl64   2.468       .  S
C65         C670   1.466       .  S
N68          C72   1.358       .  A
N68          C69   1.361       .  A
N68         C603   1.444       .  S
C69         C558   1.473       .  S
C69          C70   1.385       .  A
C70          C71   1.366       .  A
C70          H73   1.083       .  S
C71          C72   1.377       .  A
C71          H74   1.082       .  S
C72         C622   1.468       .  S
N75          C79   1.357       .  A
N75          C76   1.357       .  A
N75        C1297   1.434       .  S
C76         C542   1.483       .  S
C76          C77   1.384       .  A
C77          C78   1.380       .  A
C77          H80   1.082       .  S
C78          C79   1.383       .  A
C78          H81   1.082       .  S
C79         C590   1.483       .  S
C82         N100   1.356       .  A
C82         C119   1.457       .  S
C82         C491   1.480       .  S
N83         N100   1.330       .  A
N83         N105   1.321       .  A
N83        Co120   2.106       .  S
C84         N109   1.340       .  A
C84         C122   1.453       .  S
C84         H129   1.081       .  S
H85         C126   1.082       .  S
C86         N110   1.347       .  A
C86          C90   1.465       .  S
C86         H115   1.082       .  S
Co87        N105   2.080       .  S
Co87         N95   2.089       .  S
Co87        N127   2.087       .  S
Co87        N103   2.075       .  S
Co87       Cl131   2.442       .  S
N88         C126   1.341       .  A
N88          N95   1.321       .  A
N88         Co89   2.082       .  S
Co89         N92   2.083   1_455  S
Co89        N109   2.074       .  S
Co89         N96   2.078   1_455  S
Co89       Cl131   2.457       .  S
C90         N128   1.350       .  A
C90         C427   1.480       .  S
N91          N98   1.324       .  A
N91         N121   1.319       .  A
N91        Co124   2.080       .  S
N92         N110   1.320       .  A
N92         N128   1.325       .  A
N93         C122   1.348       .  A
N93         N103   1.323       .  A
H94         C119   1.081       .  S
N95         N116   1.324       .  A
N96         N114   1.319       .  A
N96         N101   1.322       .  A
C97         N101   1.346       .  A
C97         C125   1.460       .  S
C97         C411   1.464       .  S
N98         C113   1.349       .  A
N98        Co120   2.106   1_655  S
C99         N127   1.341       .  A
C99         C102   1.457       .  S
C99         H133   1.081       .  S
C102        N123   1.355       .  A
C102        C475   1.480       .  S
N103        N109   1.318       .  A
N104        C130   1.339   1_455  A
N104        N106   1.320   1_455  A
N104       Co120   2.080       .  S
N105        C119   1.338       .  A
N106        N134   1.326       .  A
N106       Co124   2.090       .  S
H107        C130   1.082   1_455  S
H108        C125   1.081       .  S
N110       Co124   2.102       .  S
N111        N123   1.330       .  A
N111        N127   1.320       .  A
N111       Co120   2.105       .  S
C112        N116   1.350       .  A
C112        C126   1.459       .  S
C112        C523   1.469       .  S
C113        C132   1.467       .  S
C113        H117   1.082   1_655  S
N114        C125   1.341       .  A
N114       Co124   2.080       .  S
C118        N134   1.350       .  A
C118        C130   1.456       .  S
C118        C446   1.467       .  S
Co120      Cl131   2.471       .  S
N121        C132   1.344       .  A
C122        C507   1.461       .  S
Co124      Cl131   2.442   1_655  S
C132        C459   1.469       .  S
N135        C139   1.359       .  A
N135        C136   1.366       .  A
N135       C1217   1.437       .  S
C136        C395   1.497       .  S
C136        C137   1.389       .  A
C137        C138   1.371       .  A
C137        H140   1.081       .  S
C138        C139   1.377       .  A
C138        H141   1.082       .  S
C139        C478   1.478       .  S
N142        C146   1.355       .  A
N142        C143   1.362       .  A
N142        C462   1.435       .  S
C143        C539   1.491       .  S
C143        C144   1.389       .  A
C144        C145   1.372       .  A
C144        H147   1.081       .  S
C145        C146   1.377       .  A
C145        H148   1.082       .  S
C146        C443   1.471       .  S
N149        C153   1.356       .  A
N149        C150   1.360       .  A
N149       C1153   1.442       .  S
C150        C379   1.474       .  S
C150        C151   1.385       .  A
C151        C152   1.369       .  A
C151        H154   1.082       .  S
C152        C153   1.379       .  A
C152        H155   1.082       .  S
C153        C414   1.467       .  S
N156        C157   1.356       .  A
N156        C883   1.355       .  A
N156        C526   1.435       .  S
C157        C638   1.474       .  S
C157        C881   1.385       .  A
C158        C159   1.371       .  A
C158        C880   1.385       .  A
C158        H161   1.082       .  S
C159        C160   1.378       .  A
C159        H162   1.082       .  S
C160        N879   1.350       .  A
C160        C510   1.458       .  S
C163        N181   1.356       .  A
C163        C200   1.459       .  S
C163        C334   1.487       .  S
N164        N181   1.331       .  A
N164        N186   1.319       .  A
N164       Co201   2.103       .  S
C165        N190   1.343       .  A
C165        C203   1.463       .  S
C165        H210   1.082       .  S
H166        C207   1.082       .  S
C167        N191   1.341       .  A
C167        C171   1.458       .  S
C167        H196   1.081       .  S
Co168       N186   2.086       .  S
Co168       N176   2.078       .  S
Co168       N208   2.081       .  S
Co168       N184   2.083       .  S
Co168      Cl212   2.438       .  S
N169        C207   1.341       .  A
N169        N176   1.322       .  A
N169       Co170   2.094       .  S
Co170       N173   2.090       .  S
Co170       N190   2.087       .  S
Co170       N177   2.103       .  S
Co170      Cl212   2.467       .  S
C171        N209   1.352       .  A
C171        C270   1.475       .  S
N172        N179   1.323       .  A
N172        N202   1.321       .  A
N172       Co205   2.088       .  S
N173        N191   1.318       .  A
N173        N209   1.327       .  A
N174        C203   1.347       .  A
N174        N184   1.325       .  A
H175        C200   1.082       .  S
N176        N197   1.322       .  A
N177        N195   1.321       .  A
N177        N182   1.329       .  A
C178        N182   1.355       .  A
C178        C206   1.458       .  S
C178        C251   1.479       .  S
N179        C194   1.345       .  A
N179       Co201   2.096       .  S
C180        N208   1.338       .  A
C180        C183   1.453       .  S
C180        H214   1.080       .  S
C183        N204   1.350       .  A
C183        C315   1.467       .  S
N184        N190   1.319       .  A
N185        C211   1.339       .  A
N185        N187   1.318       .  A
N185       Co201   2.077       .  S
N186        C200   1.341       .  A
N187        N215   1.325       .  A
N187       Co205   2.079       .  S
H188        C211   1.082       .  S
H189        C206   1.082       .  S
N191       Co205   2.080       .  S
N192        N204   1.326       .  A
N192        N208   1.322       .  A
N192       Co201   2.091       .  S
C193        N197   1.347       .  A
C193        C207   1.459       .  S
C193        C366   1.464       .  S
C194        C213   1.465       .  S
C194        H198   1.082       .  S
N195        C206   1.340       .  A
N195       Co205   2.088       .  S
C199        N215   1.349       .  A
C199        C211   1.455       .  S
C199        C283   1.465       .  S
Co201      Cl212   2.471       .  S
N202        C213   1.346       .  A
C203        C347   1.474       .  S
Co205      Cl212   2.436       .  S
C213        C299   1.468       .  S
N216        C220   1.356       .  A
N216        C217   1.359       .  A
N216        C350   1.444       .  S
C217        C555   1.476       .  S
C217        C218   1.386       .  A
C218        C219   1.371       .  A
C218        H221   1.082       .  S
C219        C220   1.378       .  A
C219        H945   1.082       .  S
C220        C363   1.471       .  S
H222        C942   1.082   1_554  S
N223        C227   1.356       .  A
N223        C224   1.363       .  A
N223        C267   1.435       .  S
C224        C398   1.493       .  S
C224        C225   1.387       .  A
C225        C226   1.377       .  A
C225        H228   1.082       .  S
C226        C227   1.378       .  A
C226        H229   1.082       .  S
C227        C254   1.476       .  S
N230        C234   1.353       .  A
N230        C231   1.358       .  A
N230        C331   1.434       .  S
C231        C382   1.472       .  S
C231        C232   1.383       .  A
C232        C233   1.373       .  A
C232        H235   1.082       .  S
C233        C234   1.379       .  A
C233        H236   1.082       .  S
C234        C318   1.467       .  S
N237        C241   1.355       .  A
N237        C238   1.361       .  A
N237        C302   1.442       .  S
C238        C683   1.480       .  S
C238        C239   1.387       .  A
C239        C240   1.367       .  A
C239        H242   1.082       .  S
C240        C241   1.378       .  A
C240        H243   1.082       .  S
C241        C286   1.467       .  S
C244        C249   1.387       .  A
C244        C245   1.405       .  A
C244        S250   1.708       .  A
C245        C246   1.404       .  A
C245        H256   1.083       .  S
C246        C255   1.376       .  A
C246        C247   1.387       .  A
C247        C248   1.405       .  A
C247        S253   1.709       .  A
C248        C249   1.405       .  A
C248        H257   1.083       .  S
C249        C252   1.377       .  A
S250        C251   1.725       .  A
C251        C252   1.388       .  A
C252        H258   1.083       .  S
S253        C254   1.722       .  A
C254        C255   1.386       .  A
C255        H259   1.083       .  S
C260        C265   1.388   1_554  A
C260        C261   1.404       .  A
C260        S266   1.713   1_554  A
C261        C262   1.405       .  A
C261        H272   1.083       .  S
C262        C271   1.372       .  A
C262        C263   1.387       .  A
C263        C264   1.402       .  A
C263        S269   1.710       .  A
C264        C265   1.403   1_554  A
C264        H273   1.083       .  S
C265        C991   1.371       .  A
S266        C990   1.721       .  A
C267        C268   1.386       .  A
C267        S989   1.719       .  A
C268        C988   1.373       .  A
C268        H274   1.083       .  S
S269        C270   1.722       .  A
C270        C271   1.388       .  A
C271        H275   1.082       .  S
C276        C281   1.387       .  A
C276        C277   1.398       .  A
C276        S282   1.703       .  A
C277        C278   1.399       .  A
C277        H288   1.083       .  S
C278        C287   1.366       .  A
C278        C279   1.387       .  A
C279        C280   1.402       .  A
C279        S285   1.706       .  A
C280        C281   1.403       .  A
C280        H289   1.083       .  S
C281        C284   1.370       .  A
S282        C283   1.720       .  A
C283        C284   1.385       .  A
C284        H290   1.083       .  S
S285        C286   1.721       .  A
C286        C287   1.383       .  A
C287        H291   1.083       .  S
C292        C297   1.387       .  A
C292        C293   1.403   1_554  A
C292        S298   1.705       .  A
C293        C294   1.402       .  A
C293        H304   1.082       .  S
C294        C295   1.387       .  A
C294       C1026   1.374       .  A
C295        C296   1.403   1_556  A
C295       S1024   1.704       .  A
C296        C297   1.402       .  A
C296        H305   1.083       .  S
C297        C300   1.374       .  A
S298        C299   1.722       .  A
C299        C300   1.385       .  A
C300        H306   1.083       .  S
S301        C302   1.725       .  A
S301       C1018   1.707       .  A
C302        C303   1.389       .  A
C303       C1017   1.382       .  A
C303        H307   1.082       .  S
C308        C313   1.388       .  A
C308        C309   1.399       .  A
C308        S314   1.703       .  A
C309        C310   1.400       .  A
C309        H320   1.083       .  S
C310        C319   1.368       .  A
C310        C311   1.388       .  A
C311        C312   1.402       .  A
C311        S317   1.707       .  A
C312        C313   1.402       .  A
C312        H321   1.083       .  S
C313        C316   1.371       .  A
S314        C315   1.721       .  A
C315        C316   1.384       .  A
C316        H322   1.083       .  S
S317        C318   1.720       .  A
C318        C319   1.383       .  A
C319        H323   1.083       .  S
C324        C329   1.386       .  A
C324        C325   1.409       .  A
C324        S330   1.715   1_554  A
C325        C326   1.409       .  A
C325        H336   1.083       .  S
C326        C335   1.382       .  A
C326        C327   1.386       .  A
C327        C328   1.405       .  A
C327        S333   1.709       .  A
C328        C329   1.405       .  A
C328       H1060   1.083       .  S
C329       C1055   1.376   1_554  A
S330       C1054   1.725       .  A
C331        C332   1.383       .  A
C331       S1053   1.725       .  A
C332       C1052   1.368       .  A
C332        H338   1.083       .  S
S333        C334   1.726       .  A
C334        C335   1.392       .  A
C335        H339   1.083       .  S
H337       C1051   1.083       .  S
C340        C345   1.387       .  A
C340        C341   1.398       .  A
C340        S346   1.706       .  A
C341        C342   1.400       .  A
C341        H352   1.083       .  S
C342        C351   1.365       .  A
C342        C343   1.385       .  A
C343        C344   1.407       .  A
C343        S349   1.717       .  A
C344        C345   1.409       .  A
C344        H353   1.082       .  S
C345        C348   1.375       .  A
S346        C347   1.719       .  A
C347        C348   1.391       .  A
C348        H354   1.083       .  S
S349        C350   1.726       .  A
C350        C351   1.387       .  A
C351        H355   1.083       .  S
C356        C361   1.388       .  A
C356        C357   1.400       .  A
C356       S1085   1.705   1_554  A
C357        C358   1.401       .  A
C357        H368   1.083       .  S
C358        C367   1.367       .  A
C358        C359   1.387       .  A
C359        C360   1.399       .  A
C359        S365   1.706       .  A
C360        C361   1.400       .  A
C360        H369   1.083       .  S
C361        C364   1.367   1_554  A
S362        C363   1.722       .  A
S362       C1079   1.704       .  A
C363       C1087   1.383       .  A
C364       C1086   1.382       .  A
C364        H370   1.083       .  S
S365        C366   1.719       .  A
C366        C367   1.385       .  A
C367        H371   1.083       .  S
C372        C373   1.400   1_554  A
C372       C1100   1.386       .  A
C372        S378   1.714       .  A
C373       C1097   1.404       .  A
C373        H384   1.083       .  S
C374        C383   1.372       .  A
C374        C375   1.386       .  A
C374       C1096   1.407       .  A
C375        C376   1.401       .  A
C375        S381   1.711       .  A
C376        C377   1.404       .  A
C376        H385   1.083       .  S
C377        C380   1.369       .  A
C377       C1095   1.385       .  A
S378        C379   1.720       .  A
C379       C1103   1.390       .  A
C380       C1102   1.388       .  A
C380        H386   1.083       .  S
S381        C382   1.720       .  A
C382        C383   1.389       .  A
C383       H1110   1.083       .  S
H387       C1106   1.083       .  S
C388        C389   1.405   1_554  A
C388       C1116   1.383       .  A
C388        S394   1.718       .  A
C389       C1113   1.409       .  A
C389        H400   1.083       .  S
C390        C399   1.375       .  A
C390        C391   1.384       .  A
C390       C1112   1.411       .  A
C391        C392   1.401       .  A
C391        S397   1.711       .  A
C392        C393   1.404       .  A
C392        H401   1.083       .  S
C393        C396   1.368       .  A
C393       C1111   1.383       .  A
S394        C395   1.728       .  A
C395       C1119   1.395       .  A
C396       C1118   1.393       .  A
C396        H402   1.081       .  S
S397        C398   1.725       .  A
C398        C399   1.396       .  A
C399       H1126   1.082       .  S
H403       C1122   1.082       .  S
C404        C409   1.387       .  A
C404        C405   1.399       .  A
C404        S410   1.704       .  A
C405        C406   1.400       .  A
C405        H416   1.083       .  S
C406        C415   1.366       .  A
C406        C407   1.387       .  A
C407        C408   1.401       .  A
C407        S413   1.707       .  A
C408        C409   1.402       .  A
C408        H417   1.083       .  S
C409        C412   1.369       .  A
S410        C411   1.720       .  A
C411        C412   1.384       .  A
C412        H418   1.083       .  S
S413        C414   1.720       .  A
C414        C415   1.383       .  A
C415        H419   1.083       .  S
C420        C425   1.387       .  A
C420        C421   1.401       .  A
C420        S426   1.707       .  A
C421        C422   1.402       .  A
C421        H432   1.083       .  S
C422        C431   1.369       .  A
C422        C423   1.386       .  A
C423        C424   1.410       .  A
C423        S429   1.721       .  A
C424        C425   1.411       .  A
C424        H433   1.083       .  S
C425        C428   1.380       .  A
S426        C427   1.722       .  A
C427        C428   1.392       .  A
C428        H434   1.083       .  S
S429        C430   1.725       .  A
C430        N872   1.443       .  S
C430        C431   1.387       .  A
C431       H1158   1.083       .  S
H435       C1154   1.083       .  S
C436        C441   1.387       .  A
C436        C437   1.405       .  A
C436        S442   1.713       .  A
C437        C438   1.406       .  A
C437        H448   1.082       .  S
C438        C447   1.373       .  A
C438        C439   1.387       .  A
C439        C440   1.398       .  A
C439        S445   1.704       .  A
C440        C441   1.400       .  A
C440        H449   1.083       .  S
C441        C444   1.367       .  A
S442        C443   1.723       .  A
C443        C444   1.383       .  A
C444        H450   1.083       .  S
S445        C446   1.720       .  A
C446        C447   1.387       .  A
C447        H451   1.083       .  S
C452        C457   1.388       .  A
C452        C453   1.396       .  A
C452        S458   1.698       .  A
C453        C454   1.396       .  A
C453        H464   1.083       .  S
C454        C455   1.388       .  A
C454       C1186   1.366       .  A
C455        C456   1.408       .  A
C455        S461   1.714       .  A
C456        C457   1.408       .  A
C456        H465   1.083       .  S
C457        C460   1.379       .  A
S458        C459   1.719       .  A
C459        C460   1.389       .  A
C460        H466   1.083       .  S
S461       C1185   1.724       .  A
C462        C463   1.380       .  A
C462       S1184   1.724       .  A
C463       C1177   1.370       .  A
C463        H467   1.083       .  S
C468        C473   1.387       .  A
C468        C469   1.406       .  A
C468        S474   1.709       .  A
C469        C470   1.406       .  A
C469        H480   1.082       .  S
C470        C479   1.377       .  A
C470        C471   1.387       .  A
C471        C472   1.405       .  A
C471        S477   1.707       .  A
C472        C473   1.404       .  A
C472        H481   1.082       .  S
C473        C476   1.377       .  A
S474        C475   1.726       .  A
C475        C476   1.387       .  A
C476        H482   1.083       .  S
S477        C478   1.724       .  A
C478        C479   1.388       .  A
C479        H483   1.083       .  S
C484        C489   1.386       .  A
C484        C485   1.405       .  A
C484        S490   1.715       .  A
C485        C486   1.406       .  A
C485        H496   1.083       .  S
C486        C487   1.388       .  A
C486       C1218   1.374       .  A
C487        C488   1.402       .  A
C487        S493   1.711       .  A
C488        C489   1.404       .  A
C488        H497   1.083       .  S
C489        C492   1.371       .  A
S490        C491   1.724       .  A
C491        C492   1.389       .  A
C492        H498   1.082       .  S
S493        C494   1.720       .  A
C494        N858   1.434       .  S
C494       C1218   1.385       .  A
C495       C1209   1.371       .  A
C495       C1217   1.384       .  A
C495        H499   1.083       .  S
C500        C505   1.388       .  A
C500        C501   1.399       .  A
C500        S506   1.705       .  A
C501        C502   1.401       .  A
C501        H512   1.083       .  S
C502        C511   1.366       .  A
C502        C503   1.389       .  A
C503        C504   1.396       .  A
C503        S509   1.702       .  A
C504        C505   1.398       .  A
C504        H513   1.083       .  S
C505        C508   1.364       .  A
S506        C507   1.720       .  A
C507        C508   1.381       .  A
C508        H514   1.083       .  S
S509        C510   1.716       .  A
C510        C511   1.381       .  A
C511        H515   1.083       .  S
C516        C521   1.387       .  A
C516        C517   1.404       .  A
C516        S522   1.710       .  A
C517        C518   1.405       .  A
C517        H528   1.083       .  S
C518        C527   1.374       .  A
C518        C519   1.388       .  A
C519        C520   1.399       .  A
C519        S525   1.702       .  A
C520        C521   1.399       .  A
C520        H529   1.083       .  S
C521        C524   1.368       .  A
S522        C523   1.723       .  A
C523        C524   1.384       .  A
C524        H530   1.083       .  S
S525        C526   1.720       .  A
C526        C527   1.387       .  A
C527       H1254   1.082       .  S
H531       C1250   1.082       .  S
C532        C537   1.384       .  A
C532        C533   1.403   1_554  A
C532        S538   1.711       .  A
C533        C534   1.406       .  A
C533        H544   1.083       .  S
C534        C535   1.386   1_556  A
C534       C1266   1.370       .  A
C535        C536   1.400       .  A
C535       S1264   1.708       .  A
C536        C537   1.403       .  A
C536        H545   1.083       .  S
C537        C540   1.366       .  A
S538        C539   1.727       .  A
C539        C540   1.392       .  A
C540        H546   1.082       .  S
S541        C542   1.722       .  A
S541       C1258   1.711       .  A
C542        C543   1.391       .  A
C543       C1257   1.374       .  A
C543        H547   1.083       .  S
C548        C553   1.385       .  A
C548        C549   1.399       .  A
C548        S554   1.705       .  A
C549        C550   1.402       .  A
C549        H560   1.083       .  S
C550        C559   1.366       .  A
C550        C551   1.385       .  A
C551        C552   1.403       .  A
C551        S557   1.711       .  A
C552        C553   1.405       .  A
C552        H561   1.083       .  S
C553        C556   1.369       .  A
S554        C555   1.722       .  A
C555        C556   1.390       .  A
C556        H562   1.083       .  S
S557        C558   1.723       .  A
C558        C559   1.389       .  A
C559        H563   1.083       .  S
C564        C569   1.386       .  A
C564        C565   1.404       .  A
C564        S570   1.713       .  A
C565        C566   1.405   1_554  A
C565        H576   1.083       .  S
C566        C575   1.371       .  A
C566        C567   1.388       .  A
C567        C568   1.401   1_556  A
C567        S573   1.710       .  A
C568        C569   1.403       .  A
C568        H577   1.083       .  S
C569        C572   1.369       .  A
S570        C571   1.724       .  A
C571        C572   1.387       .  A
C572        H578   1.082       .  S
S573        C574   1.721       .  A
C574        N798   1.437       .  S
C574        C575   1.386       .  A
C575        H579   1.083       .  S
C580        C585   1.387       .  A
C580        C581   1.406       .  A
C580        S586   1.714       .  A
C581        C582   1.407       .  A
C581        H592   1.082       .  S
C582        C591   1.375       .  A
C582        C583   1.386       .  A
C583        C584   1.401       .  A
C583        S589   1.706       .  A
C584        C585   1.402       .  A
C584        H593   1.083       .  S
C585        C588   1.370       .  A
S586        C587   1.724       .  A
C587        C588   1.385       .  A
C588        H594   1.083       .  S
S589        C590   1.723       .  A
C590        C591   1.390       .  A
C591        H595   1.083       .  S
C596        C601   1.386       .  A
C596        C597   1.412   1_556  A
C596        S602   1.724       .  A
C597        C598   1.413       .  A
C597        H608   1.082       .  S
C598        C607   1.382       .  A
C598        C599   1.387       .  A
C599        C600   1.397   1_554  A
C599        S605   1.703       .  A
C600        C601   1.399       .  A
C600        H609   1.083       .  S
C601        C604   1.366       .  A
S602       C1326   1.727       .  A
C603       C1327   1.385       .  A
C603       S1325   1.727       .  A
C604       C1326   1.386       .  A
C604        H610   1.083       .  S
S605        C606   1.720       .  A
C606        C607   1.393       .  A
C607        H611   1.082       .  S
C612        C617   1.387       .  A
C612        C613   1.402       .  A
C612        S618   1.706       .  A
C613        C614   1.403       .  A
C613        H624   1.083       .  S
C614        C623   1.371       .  A
C614        C615   1.388       .  A
C615        C616   1.399       .  A
C615        S621   1.703       .  A
C616        C617   1.400       .  A
C616        H625   1.083       .  S
C617        C620   1.370       .  A
S618        C619   1.723       .  A
C619        C620   1.384       .  A
C620        H626   1.083       .  S
S621        C622   1.719       .  A
C622        C623   1.384       .  A
C623        H627   1.083       .  S
C628        C633   1.384       .  A
C628       C1352   1.394       .  A
C628       S1357   1.696       .  A
C629       C1351   1.395       .  A
C629       C1353   1.397       .  A
C629        H640   1.083       .  S
C630        C631   1.386       .  A
C630       C1352   1.396       .  A
C630       C1362   1.361       .  A
C631        C632   1.407       .  A
C631        S637   1.714       .  A
C632        C633   1.408       .  A
C632        H641   1.083       .  S
C633        C636   1.374       .  A
S634       C1351   1.698   1_556  A
S634       C1358   1.719       .  A
C635        C636   1.395       .  A
C635       S1357   1.718       .  A
C636        H642   1.082       .  S
S637        C638   1.726       .  A
C638       C1362   1.383       .  A
C639       C1353   1.362       .  A
C639       C1361   1.382       .  A
C639        H643   1.083       .  S
C644        C649   1.387       .  A
C644        C645   1.398       .  A
C644        S650   1.706   1_554  A
C645        C646   1.400       .  A
C645        H656   1.083       .  S
C646        C655   1.366       .  A
C646        C647   1.386       .  A
C647        C648   1.406       .  A
C647        S653   1.716       .  A
C648        C649   1.408       .  A
C648        H657   1.082       .  S
C649        C652   1.373   1_554  A
S650        C651   1.719       .  A
C651        N731   1.436       .  S
C651        C652   1.388       .  A
C652        H658   1.082       .  S
S653        C654   1.726       .  A
C654        C655   1.384       .  A
C655        H659   1.083       .  S
C660        C665   1.387       .  A
C660        C661   1.399       .  A
C660        S666   1.709       .  A
C661        C662   1.402       .  A
C661        H672   1.083   1_565  S
C662        C671   1.366       .  A
C662        C663   1.387       .  A
C663        C664   1.399       .  A
C663        S669   1.709       .  A
C664        C665   1.401       .  A
C664        H673   1.083       .  S
C665        C668   1.364       .  A
S666        C667   1.720       .  A
C667        C668   1.384       .  A
C668        H674   1.082       .  S
S669        C670   1.720       .  A
C670        C671   1.385       .  A
C671        H675   1.083   1_565  S
C676        C681   1.385       .  A
C676        C677   1.402       .  A
C676        S682   1.714       .  A
C677        C678   1.405       .  A
C677       H1411   1.083       .  S
C678        C687   1.367       .  A
C678        C679   1.386       .  A
C679        C680   1.401       .  A
C679        S685   1.712       .  A
C680        C681   1.404       .  A
C680        H689   1.083       .  S
C681        C684   1.366       .  A
S682        C683   1.724       .  A
C683        C684   1.391       .  A
C684        H690   1.083       .  S
S685        C686   1.722       .  A
C686        C687   1.389       .  A
C687       H1414   1.083       .  S
H688       C1400   1.083       .  S
H691       C1410   1.083       .  S
C692        C697   1.387       .  A
C692        C693   1.399       .  A
C692        S698   1.703       .  A
C693        C694   1.399   1_554  A
C693        H704   1.083       .  S
C694        C703   1.367       .  A
C694        C695   1.387       .  A
C695        C696   1.404   1_556  A
C695        S701   1.709       .  A
C696        C697   1.405       .  A
C696        H705   1.083       .  S
C697        C700   1.374       .  A
S698        C699   1.721       .  A
C699        C700   1.387       .  A
C700        H706   1.083       .  S
S701        C702   1.723       .  A
C702        C703   1.383       .  A
C703        H707   1.083       .  S
C708        C713   1.386       .  A
C708        C709   1.404       .  A
C708        S714   1.710       .  A
C709        C710   1.405       .  A
C709        H720   1.083       .  S
C710        C719   1.373       .  A
C710        C711   1.386       .  A
C711        C712   1.406       .  A
C711        S717   1.714       .  A
C712        C713   1.407       .  A
C712        H721   1.082       .  S
C713        C716   1.377       .  A
S714        C715   1.725       .  A
C715        C716   1.389       .  A
C716        H722   1.082       .  S
S717        C718   1.724       .  A
C718        C719   1.387       .  A
C719        H723   1.083       .  S
N724        C725   1.363       .  A
N724       C1441   1.440       .  S
C725       C1409   1.481       .  S
C726        C727   1.370       .  A
C726        H729   1.082       .  S
C727        C728   1.377       .  A
C727        H730   1.082       .  S
C728       C1425   1.460       .  S
N731        C735   1.350       .  A
N731        C732   1.356       .  A
C732       C1358   1.476       .  S
C732        C733   1.385       .  A
C733        C734   1.378       .  A
C733        H736   1.082       .  S
C734        C735   1.380       .  A
C734        H737   1.082       .  S
C735       C1390   1.469       .  S
C738        N756   1.351       .  A
C738        C775   1.464       .  S
C738       C1438   1.480       .  S
N739        N756   1.325       .  A
N739        N761   1.321   1_565  A
N739       Co776   2.097       .  S
C740        N765   1.338       .  A
C740        C778   1.458       .  S
C740        H785   1.081       .  S
H741        C782   1.082       .  S
C742        N766   1.340       .  A
C742        C746   1.457       .  S
C742        H771   1.082       .  S
Co743       N761   2.096       .  S
Co743       N751   2.079       .  S
Co743       N783   2.076       .  S
Co743       N759   2.094       .  S
Co743      Cl787   2.471       .  S
N744        C782   1.340       .  A
N744        N751   1.321       .  A
N744       Co745   2.095       .  S
Co745       N748   2.077       .  S
Co745       N765   2.080       .  S
Co745       N752   2.093       .  S
Co745      Cl787   2.432       .  S
C746        N784   1.348       .  A
C746       C1342   1.464       .  S
N747        N754   1.321   1_545  A
N747        N777   1.324       .  A
N747       Co780   2.086       .  S
N748        N766   1.319       .  A
N748        N784   1.322       .  A
N749        C778   1.353       .  A
N749        N759   1.328       .  A
H750        C775   1.082   1_545  S
N751        N772   1.327       .  A
N752        N770   1.321       .  A
N752        N757   1.324       .  A
C753        N757   1.349       .  A
C753        C781   1.465       .  S
C753       C1329   1.479       .  S
N754        C769   1.342       .  A
N754       Co776   2.085       .  S
C755        N783   1.338       .  A
C755        C758   1.456   1_545  S
C755        H789   1.081       .  S
C758        N779   1.347       .  A
C758       C1422   1.460       .  S
N759        N765   1.319       .  A
N760        C786   1.342       .  A
N760        N762   1.320   1_565  A
N760       Co776   2.093       .  S
N761        C775   1.346   1_545  A
N762        N790   1.327       .  A
N762       Co780   2.092       .  S
H763        C786   1.081       .  S
H764        C781   1.082       .  S
N766       Co780   2.079       .  S
N767        N779   1.322       .  A
N767        N783   1.320   1_565  A
N767       Co776   2.075       .  S
C768        N772   1.349       .  A
C768        C782   1.459       .  S
C768       C1310   1.470       .  S
C769        C788   1.460       .  S
C769        H773   1.081       .  S
N770        C781   1.348       .  A
N770       Co780   2.097       .  S
C774        N790   1.353   1_565  A
C774        C786   1.460       .  S
C774       C1377   1.478       .  S
Co776      Cl787   2.442   1_565  S
N777        C788   1.348   1_545  A
C778       C1294   1.475       .  S
Co780      Cl787   2.467       .  S
C788       C1393   1.470       .  S
N791        C795   1.357       .  A
N791        C792   1.359       .  A
N791       C1326   1.444       .  S
C792       C1281   1.473       .  S
C792        C793   1.386       .  A
C793        C794   1.368       .  A
C793        H796   1.082       .  S
C794        C795   1.377       .  A
C794        H797   1.082       .  S
C795       C1345   1.466       .  S
N798        C802   1.355       .  A
N798        C799   1.358       .  A
C799       C1265   1.483       .  S
C799        C800   1.385       .  A
C800        C801   1.378       .  A
C800        H803   1.082       .  S
C801        C802   1.381       .  A
C801        H804   1.082       .  S
C802       C1313   1.475       .  S
C805        N823   1.357       .  A
C805        C842   1.456       .  S
C805       C1214   1.481       .  S
N806        N823   1.329       .  A
N806        N828   1.321       .  A
N806       Co843   2.115       .  S
C807        N832   1.345       .  A
C807        C845   1.461       .  S
C807        H852   1.081       .  S
H808        C849   1.082       .  S
C809        N833   1.347       .  A
C809        C813   1.464       .  S
C809        H838   1.082       .  S
Co810       N828   2.075       .  S
Co810       N818   2.091       .  S
Co810       N850   2.092       .  S
Co810       N826   2.067       .  S
Co810      Cl854   2.437       .  S
N811        C849   1.346       .  A
N811        N818   1.321       .  A
N811       Co812   2.095       .  S
Co812       N815   2.098   1_455  S
Co812       N832   2.090       .  S
Co812       N819   2.088   1_455  S
Co812      Cl854   2.468       .  S
C813        N851   1.353       .  A
C813       C1150   1.483       .  S
N814        N821   1.323       .  A
N814        N844   1.320       .  A
N814       Co847   2.082       .  S
N815        N833   1.321       .  A
N815        N851   1.326       .  A
N816        C845   1.345       .  A
N816        N826   1.319       .  A
H817        C842   1.081       .  S
N818        N839   1.324       .  A
N819        N837   1.319       .  A
N819        N824   1.325       .  A
C820        N824   1.350       .  A
C820        C848   1.460       .  S
C820       C1134   1.472       .  S
N821        C836   1.348       .  A
N821       Co843   2.103   1_655  S
C822        N850   1.340       .  A
C822        C825   1.459       .  S
C822        H856   1.082       .  S
C825        N846   1.354       .  A
C825       C1198   1.481       .  S
N826        N832   1.319       .  A
N827        C853   1.349       .  A
N827        N829   1.321       .  A
N827       Co843   2.108   1_655  S
N828        C842   1.339       .  A
N829        N857   1.322       .  A
N829       Co847   2.078       .  S
H830        C853   1.082   1_455  S
H831        C848   1.081       .  S
N833       Co847   2.097       .  S
N834        N846   1.330       .  A
N834        N850   1.320       .  A
N834       Co843   2.097       .  S
C835        N839   1.350       .  A
C835        C849   1.464       .  S
C835       C1246   1.478       .  S
C836        C855   1.466       .  S
C836        H840   1.082   1_655  S
N837        C848   1.343       .  A
N837       Co847   2.087       .  S
C841        N857   1.346       .  A
C841        C853   1.468       .  S
C841       C1169   1.478       .  S
Co843      Cl854   2.475       .  S
N844        C855   1.347       .  A
C845       C1230   1.465       .  S
Co847      Cl854   2.442   1_655  S
C855       C1182   1.474       .  S
N858        C862   1.358       .  A
N858        C859   1.365       .  A
C859       C1118   1.498       .  S
C859        C860   1.390       .  A
C860        C861   1.373       .  A
C860        H863   1.081       .  S
C861        C862   1.376       .  A
C861        H864   1.082       .  S
C862       C1201   1.477       .  S
N865        C869   1.358       .  A
N865        C866   1.360       .  A
N865       C1185   1.434       .  S
C866       C1262   1.487       .  S
C866        C867   1.386       .  A
C867        C868   1.375       .  A
C867        H870   1.082       .  S
C868        C869   1.380       .  A
C868        H871   1.082       .  S
C869       C1166   1.480       .  S
N872        C876   1.360       .  A
N872        C873   1.362       .  A
C873       C1102   1.476       .  S
C873        C874   1.384       .  A
C874        C875   1.370       .  A
C874        H877   1.083       .  S
C875        C876   1.379       .  A
C875        H878   1.082       .  S
C876       C1137   1.474       .  S
N879        C880   1.353       .  A
N879       C1249   1.436       .  S
C880       C1361   1.466       .  S
C881        C882   1.368       .  A
C881        H884   1.082       .  S
C882        C883   1.378       .  A
C882        H885   1.082       .  S
C883       C1233   1.464       .  S
C886        N904   1.356       .  A
C886        C923   1.455       .  S
C886       C1057   1.477       .  S
N887        N904   1.330       .  A
N887        N909   1.319       .  A
N887       Co924   2.098       .  S
C888        N913   1.343       .  A
C888        C926   1.463       .  S
C888        H933   1.082       .  S
H889        C930   1.081       .  S
C890        N914   1.345       .  A
C890        C894   1.464       .  S
C890        H919   1.081       .  S
Co891       N909   2.074       .  S
Co891       N899   2.069       .  S
Co891       N931   2.066       .  S
Co891       N907   2.091       .  S
Co891      Cl935   2.436       .  S
N892        C930   1.340       .  A
N892        N899   1.319       .  A
N892       Co893   2.083       .  S
Co893       N896   2.078       .  S
Co893       N913   2.088       .  S
Co893       N900   2.096       .  S
Co893      Cl935   2.465       .  S
C894        N932   1.346       .  A
C894        C993   1.472       .  S
N895        N902   1.324       .  A
N895        N925   1.326       .  A
N895       Co928   2.101       .  S
N896        N914   1.320       .  A
N896        N932   1.323       .  A
N897        C926   1.350       .  A
N897        N907   1.327       .  A
H898        C923   1.082       .  S
N899        N920   1.322       .  A
N900        N918   1.321       .  A
N900        N905   1.329       .  A
C901        N905   1.354       .  A
C901        C929   1.459       .  S
C901        C974   1.480       .  S
N902        C917   1.347       .  A
N902       Co924   2.109       .  S
C903        N931   1.333       .  A
C903        C906   1.450       .  S
C903        H937   1.081       .  S
C906        N927   1.355       .  A
C906       C1038   1.470       .  S
N907        N913   1.319       .  A
N908        C934   1.338       .  A
N908        N910   1.320       .  A
N908       Co924   2.072       .  S
N909        C923   1.335       .  A
N910        N938   1.326       .  A
N910       Co928   2.091       .  S
H911        C934   1.082       .  S
H912        C929   1.082       .  S
N914       Co928   2.096       .  S
N915        N927   1.330       .  A
N915        N931   1.321       .  A
N915       Co924   2.108       .  S
C916        N920   1.347       .  A
C916        C930   1.457       .  S
C916       C1089   1.460       .  S
C917        C936   1.468       .  S
C917        H921   1.082       .  S
N918        C929   1.340       .  A
N918       Co928   2.093       .  S
C922        N938   1.351       .  A
C922        C934   1.452       .  S
C922       C1006   1.464       .  S
Co924      Cl935   2.471       .  S
N925        C936   1.350       .  A
C926       C1070   1.478       .  S
Co928      Cl935   2.442       .  S
C936       C1022   1.485       .  S
N939        C943   1.354       .  A
N939        C940   1.359       .  A
N939       C1073   1.444       .  S
C940       C1278   1.476       .  S
C940        C941   1.387       .  A
C941        C942   1.371       .  A
C941        H944   1.082       .  S
C942        C943   1.377       .  A
C943       C1086   1.469       .  S
N946        C950   1.357       .  A
N946        C947   1.364       .  A
N946        C990   1.435       .  S
C947       C1121   1.496       .  S
C947        C948   1.389       .  A
C948        C949   1.374       .  A
C948        H951   1.081       .  S
C949        C950   1.376       .  A
C949        H952   1.082       .  S
C950        C977   1.476       .  S
N953        C957   1.355       .  A
N953        C954   1.364       .  A
N953       C1054   1.440       .  S
C954       C1105   1.482       .  S
C954        C955   1.388       .  A
C955        C956   1.367       .  A
C955        H958   1.082       .  S
C956        C957   1.376       .  A
C956        H959   1.082       .  S
C957       C1041   1.464       .  S
N960        C964   1.357       .  A
N960        C961   1.358       .  A
N960       C1025   1.435       .  S
C961       C1406   1.483       .  S
C961        C962   1.387       .  A
C962        C963   1.369       .  A
C962        H965   1.082       .  S
C963        C964   1.379       .  A
C963        H966   1.082       .  S
C964       C1009   1.475       .  S
C967        C972   1.387       .  A
C967        C968   1.403       .  A
C967        S973   1.706       .  A
C968        C969   1.403       .  A
C968        H979   1.083       .  S
C969        C978   1.375       .  A
C969        C970   1.387       .  A
C970        C971   1.407       .  A
C970        S976   1.711       .  A
C971        C972   1.407       .  A
C971        H980   1.083       .  S
C972        C975   1.379       .  A
S973        C974   1.723       .  A
C974        C975   1.390       .  A
C975        H981   1.083       .  S
S976        C977   1.724       .  A
C977        C978   1.385       .  A
C978        H982   1.083       .  S
C983        C988   1.388       .  A
C983        C984   1.401       .  A
C983        S989   1.708       .  A
C984        C985   1.402       .  A
C984        H995   1.083       .  S
C985        C994   1.372       .  A
C985        C986   1.387       .  A
C986        C987   1.404       .  A
C986        S992   1.709       .  A
C987        C988   1.405       .  A
C987        H996   1.083       .  S
C990        C991   1.384       .  A
C991        H997   1.083       .  S
S992        C993   1.725       .  A
C993        C994   1.384       .  A
C994        H998   1.083       .  S
C999       C1004   1.388       .  A
C999       C1000   1.400       .  A
C999       S1005   1.705       .  A
C1000      C1001   1.401       .  A
C1000      H1011   1.083       .  S
C1001      C1010   1.369       .  A
C1001      C1002   1.386       .  A
C1002      C1003   1.400       .  A
C1002      S1008   1.703       .  A
C1003      C1004   1.400       .  A
C1003      H1012   1.083       .  S
C1004      C1007   1.369       .  A
S1005      C1006   1.721       .  A
C1006      C1007   1.383       .  A
C1007      H1013   1.083       .  S
S1008      C1009   1.721       .  A
C1009      C1010   1.387       .  A
C1010      H1014   1.083       .  S
C1015      C1020   1.386       .  A
C1015      C1016   1.409       .  A
C1015      S1021   1.713       .  A
C1016      C1017   1.408       .  A
C1016      H1027   1.082       .  S
C1017      C1018   1.387       .  A
C1018      C1019   1.406       .  A
C1019      C1020   1.405       .  A
C1019      H1028   1.082       .  S
C1020      C1023   1.379       .  A
S1021      C1022   1.727       .  A
C1022      C1023   1.389       .  A
C1023      H1029   1.082       .  S
S1024      C1025   1.723       .  A
C1025      C1026   1.385       .  A
C1026      H1030   1.082       .  S
C1031      C1036   1.387       .  A
C1031      C1032   1.397       .  A
C1031      S1037   1.697       .  A
C1032      C1033   1.397       .  A
C1032      H1043   1.083       .  S
C1033      C1042   1.366       .  A
C1033      C1034   1.387       .  A
C1034      C1035   1.405       .  A
C1034      S1040   1.708       .  A
C1035      C1036   1.405       .  A
C1035      H1044   1.082       .  S
C1036      C1039   1.377       .  A
S1037      C1038   1.721       .  A
C1038      C1039   1.387       .  A
C1039      H1045   1.083       .  S
S1040      C1041   1.722       .  A
C1041      C1042   1.382       .  A
C1042      H1046   1.083       .  S
C1047      C1052   1.387       .  A
C1047      C1048   1.408       .  A
C1047      S1053   1.714       .  A
C1048      C1049   1.408       .  A
C1048      H1059   1.083       .  S
C1049      C1058   1.379       .  A
C1049      C1050   1.387       .  A
C1050      C1051   1.398       .  A
C1050      S1056   1.700       .  A
C1051      C1052   1.399       .  A
C1054      C1055   1.388       .  A
C1055      H1061   1.083       .  S
S1056      C1057   1.723       .  A
C1057      C1058   1.389       .  A
C1058      H1062   1.083       .  S
C1063      C1068   1.386       .  A
C1063      C1064   1.399       .  A
C1063      S1069   1.708       .  A
C1064      C1065   1.401       .  A
C1064      H1075   1.083       .  S
C1065      C1074   1.365       .  A
C1065      C1066   1.386       .  A
C1066      C1067   1.409       .  A
C1066      S1072   1.722       .  A
C1067      C1068   1.411       .  A
C1067      H1076   1.082       .  S
C1068      C1071   1.377       .  A
S1069      C1070   1.721       .  A
C1070      C1071   1.392       .  A
C1071      H1077   1.083       .  S
S1072      C1073   1.725       .  A
C1073      C1074   1.388       .  A
C1074      H1078   1.083       .  S
C1079      C1084   1.387       .  A
C1079      C1080   1.400       .  A
C1080      C1081   1.401       .  A
C1080      H1091   1.083       .  S
C1081      C1090   1.366       .  A
C1081      C1082   1.388       .  A
C1082      C1083   1.398       .  A
C1082      S1088   1.704       .  A
C1083      C1084   1.400       .  A
C1083      H1092   1.083       .  S
C1084      C1087   1.366       .  A
S1085      C1086   1.721       .  A
C1087      H1093   1.083       .  S
S1088      C1089   1.718       .  A
C1089      C1090   1.383       .  A
C1090      H1094   1.083       .  S
C1095      C1096   1.405       .  A
C1095      S1101   1.715       .  A
C1096      H1107   1.083       .  S
C1097      C1106   1.363       .  A
C1097      C1098   1.385   1_556  A
C1098      C1099   1.403       .  A
C1098      S1104   1.719       .  A
C1099      C1100   1.407       .  A
C1099      H1108   1.083       .  S
C1100      C1103   1.367       .  A
S1101      C1102   1.725       .  A
C1103      H1109   1.083       .  S
S1104      C1105   1.724   1_554  A
C1105      C1106   1.391       .  A
C1111      C1112   1.408       .  A
C1111      S1117   1.720       .  A
C1112      H1123   1.083       .  S
C1113      C1122   1.371       .  A
C1113      C1114   1.384   1_556  A
C1114      C1115   1.403       .  A
C1114      S1120   1.716       .  A
C1115      C1116   1.407       .  A
C1115      H1124   1.083       .  S
C1116      C1119   1.369       .  A
S1117      C1118   1.731       .  A
C1119      H1125   1.081       .  S
S1120      C1121   1.727   1_554  A
C1121      C1122   1.395       .  A
C1127      C1132   1.387       .  A
C1127      C1128   1.401       .  A
C1127      S1133   1.707       .  A
C1128      C1129   1.402       .  A
C1128      H1139   1.083       .  S
C1129      C1138   1.369       .  A
C1129      C1130   1.387       .  A
C1130      C1131   1.404       .  A
C1130      S1136   1.711       .  A
C1131      C1132   1.405       .  A
C1131      H1140   1.083       .  S
C1132      C1135   1.373       .  A
S1133      C1134   1.721       .  A
C1134      C1135   1.387       .  A
C1135      H1141   1.083       .  S
S1136      C1137   1.721       .  A
C1137      C1138   1.385       .  A
C1138      H1142   1.083       .  S
C1143      C1148   1.387       .  A
C1143      C1144   1.400   1_556  A
C1143      S1149   1.706       .  A
C1144      C1145   1.401       .  A
C1144      H1155   1.083       .  S
C1145      C1154   1.370       .  A
C1145      C1146   1.386       .  A
C1146      C1147   1.412   1_554  A
C1146      S1152   1.721       .  A
C1147      C1148   1.413       .  A
C1147      H1156   1.083       .  S
C1148      C1151   1.383       .  A
S1149      C1150   1.721       .  A
C1150      C1151   1.395       .  A
C1151      H1157   1.083       .  S
S1152      C1153   1.727       .  A
C1153      C1154   1.385       .  A
C1159      C1164   1.387       .  A
C1159      C1160   1.400       .  A
C1159      S1165   1.705       .  A
C1160      C1161   1.401       .  A
C1160      H1171   1.083       .  S
C1161      C1170   1.369       .  A
C1161      C1162   1.386       .  A
C1162      C1163   1.408       .  A
C1162      S1168   1.717       .  A
C1163      C1164   1.408       .  A
C1163      H1172   1.082       .  S
C1164      C1167   1.378       .  A
S1165      C1166   1.722       .  A
C1166      C1167   1.389       .  A
C1167      H1173   1.082       .  S
S1168      C1169   1.725       .  A
C1169      C1170   1.387       .  A
C1170      H1174   1.083       .  S
C1175      C1180   1.387   1_556  A
C1175      C1176   1.398   1_556  A
C1175      S1181   1.698       .  A
C1176      C1177   1.397       .  A
C1176      H1187   1.083       .  S
C1177      C1178   1.388       .  A
C1178      C1179   1.409       .  A
C1178      S1184   1.713       .  A
C1179      C1180   1.408       .  A
C1179      H1188   1.083       .  S
C1180      C1183   1.380   1_554  A
S1181      C1182   1.720       .  A
C1182      C1183   1.391       .  A
C1183      H1189   1.083       .  S
C1185      C1186   1.380       .  A
C1186      H1190   1.083       .  S
C1191      C1196   1.387       .  A
C1191      C1192   1.401       .  A
C1191      S1197   1.705       .  A
C1192      C1193   1.401       .  A
C1192      H1203   1.083       .  S
C1193      C1202   1.371       .  A
C1193      C1194   1.386       .  A
C1194      C1195   1.410       .  A
C1194      S1200   1.717       .  A
C1195      C1196   1.410       .  A
C1195      H1204   1.082       .  S
C1196      C1199   1.381       .  A
S1197      C1198   1.723       .  A
C1198      C1199   1.392       .  A
C1199      H1205   1.083       .  S
S1200      C1201   1.725       .  A
C1201      C1202   1.384       .  A
C1202      H1206   1.083       .  S
C1207      C1212   1.386   1_554  A
C1207      C1208   1.402       .  A
C1207      S1213   1.712   1_554  A
C1208      C1209   1.404       .  A
C1208      H1219   1.083       .  S
C1209      C1210   1.387       .  A
C1210      C1211   1.406       .  A
C1210      S1216   1.717       .  A
C1211      C1212   1.408   1_554  A
C1211      H1220   1.083       .  S
C1212      C1215   1.375       .  A
S1213      C1214   1.722       .  A
C1214      C1215   1.392       .  A
C1215      H1221   1.082       .  S
S1216      C1217   1.722       .  A
C1218      H1222   1.082       .  S
C1223      C1228   1.387       .  A
C1223      C1224   1.402       .  A
C1223      S1229   1.712       .  A
C1224      C1225   1.404       .  A
C1224      H1235   1.083       .  S
C1225      C1234   1.368       .  A
C1225      C1226   1.388       .  A
C1226      C1227   1.396       .  A
C1226      S1232   1.702       .  A
C1227      C1228   1.398       .  A
C1227      H1236   1.083       .  S
C1228      C1231   1.362       .  A
S1229      C1230   1.721       .  A
C1230      C1231   1.383       .  A
C1231      H1237   1.084       .  S
S1232      C1233   1.718       .  A
C1233      C1234   1.384       .  A
C1234      H1238   1.083       .  S
C1239      C1244   1.386       .  A
C1239      C1240   1.406   1_556  A
C1239      S1245   1.715       .  A
C1240      C1241   1.407       .  A
C1240      H1251   1.083       .  S
C1241      C1250   1.375       .  A
C1241      C1242   1.388       .  A
C1242      C1243   1.401   1_554  A
C1242      S1248   1.707       .  A
C1243      C1244   1.402       .  A
C1243      H1252   1.083       .  S
C1244      C1247   1.370       .  A
S1245      C1246   1.725       .  A
C1246      C1247   1.387       .  A
C1247      H1253   1.083       .  S
S1248      C1249   1.720       .  A
C1249      C1250   1.387       .  A
C1255      C1260   1.385       .  A
C1255      C1256   1.406       .  A
C1255      S1261   1.717       .  A
C1256      C1257   1.409       .  A
C1256      H1267   1.083       .  S
C1257      C1258   1.386       .  A
C1258      C1259   1.401       .  A
C1259      C1260   1.403       .  A
C1259      H1268   1.083       .  S
C1260      C1263   1.369       .  A
S1261      C1262   1.728       .  A
C1262      C1263   1.389       .  A
C1263      H1269   1.083       .  S
S1264      C1265   1.724   1_554  A
C1265      C1266   1.390       .  A
C1266      H1270   1.083       .  S
C1271      C1276   1.385       .  A
C1271      C1272   1.400       .  A
C1271      S1277   1.707       .  A
C1272      C1273   1.402       .  A
C1272      H1283   1.083       .  S
C1273      C1282   1.367       .  A
C1273      C1274   1.385       .  A
C1274      C1275   1.404       .  A
C1274      S1280   1.712       .  A
C1275      C1276   1.406       .  A
C1275      H1284   1.083       .  S
C1276      C1279   1.371       .  A
S1277      C1278   1.722       .  A
C1278      C1279   1.391       .  A
C1279      H1285   1.083       .  S
S1280      C1281   1.725       .  A
C1281      C1282   1.387       .  A
C1282      H1286   1.083       .  S
C1287      C1292   1.386       .  A
C1287      C1288   1.404       .  A
C1287      S1293   1.713       .  A
C1288      C1289   1.406       .  A
C1288      H1299   1.083       .  S
C1289      C1298   1.371       .  A
C1289      C1290   1.388       .  A
C1290      C1291   1.399       .  A
C1290      S1296   1.709       .  A
C1291      C1292   1.402       .  A
C1291      H1300   1.083       .  S
C1292      C1295   1.368       .  A
S1293      C1294   1.725       .  A
C1294      C1295   1.386       .  A
C1295      H1301   1.082       .  S
S1296      C1297   1.719       .  A
C1297      C1298   1.385       .  A
C1298      H1302   1.083       .  S
C1303      C1308   1.387       .  A
C1303      C1304   1.406       .  A
C1303      S1309   1.714       .  A
C1304      C1305   1.407       .  A
C1304      H1315   1.082       .  S
C1305      C1314   1.373       .  A
C1305      C1306   1.387       .  A
C1306      C1307   1.398       .  A
C1306      S1312   1.704       .  A
C1307      C1308   1.400       .  A
C1307      H1316   1.083       .  S
C1308      C1311   1.367       .  A
S1309      C1310   1.724       .  A
C1310      C1311   1.382       .  A
C1311      H1317   1.083       .  S
S1312      C1313   1.720       .  A
C1313      C1314   1.388       .  A
C1314      H1318   1.083       .  S
C1319      C1324   1.386       .  A
C1319      C1320   1.412       .  A
C1319      S1325   1.723       .  A
C1320      C1321   1.413       .  A
C1320      H1331   1.082       .  S
C1321      C1330   1.382       .  A
C1321      C1322   1.387       .  A
C1322      C1323   1.398       .  A
C1322      S1328   1.704       .  A
C1323      C1324   1.399       .  A
C1323      H1332   1.083       .  S
C1324      C1327   1.366       .  A
C1327      H1333   1.083       .  S
S1328      C1329   1.720       .  A
C1329      C1330   1.393       .  A
C1330      H1334   1.082       .  S
C1335      C1340   1.387       .  A
C1335      C1336   1.401       .  A
C1335      S1341   1.708       .  A
C1336      C1337   1.402       .  A
C1336      H1347   1.083       .  S
C1337      C1346   1.368       .  A
C1337      C1338   1.388       .  A
C1338      C1339   1.398       .  A
C1338      S1344   1.704       .  A
C1339      C1340   1.399       .  A
C1339      H1348   1.083       .  S
C1340      C1343   1.365       .  A
S1341      C1342   1.722       .  A
C1342      C1343   1.383       .  A
C1343      H1349   1.083       .  S
S1344      C1345   1.719       .  A
C1345      C1346   1.384       .  A
C1346      H1350   1.083       .  S
C1351      C1356   1.385   1_554  A
C1352      H1363   1.083       .  S
C1353      C1354   1.386       .  A
C1354      C1355   1.404   1_554  A
C1354      S1360   1.711       .  A
C1355      C1356   1.406       .  A
C1355      H1364   1.083       .  S
C1356      C1359   1.372       .  A
C1358      C1359   1.391       .  A
C1359      H1365   1.083       .  S
S1360      C1361   1.723       .  A
C1362      H1366   1.083       .  S
C1367      C1372   1.386       .  A
C1367      C1368   1.405       .  A
C1367      S1373   1.712       .  A
C1368      C1369   1.406       .  A
C1368      H1379   1.082       .  S
C1369      C1378   1.374       .  A
C1369      C1370   1.386       .  A
C1370      C1371   1.403       .  A
C1370      S1376   1.710       .  A
C1371      C1372   1.404       .  A
C1371      H1380   1.083       .  S
C1372      C1375   1.371       .  A
S1373      C1374   1.726       .  A
C1374      C1375   1.387       .  A
C1375      H1381   1.083       .  S
S1376      C1377   1.723       .  A
C1377      C1378   1.389       .  A
C1378      H1382   1.083       .  S
C1383      C1388   1.387       .  A
C1383      C1384   1.401       .  A
C1383      S1389   1.709       .  A
C1384      C1385   1.403       .  A
C1384      H1395   1.083   1_565  S
C1385      C1394   1.370       .  A
C1385      C1386   1.387       .  A
C1386      C1387   1.400       .  A
C1386      S1392   1.707       .  A
C1387      C1388   1.402       .  A
C1387      H1396   1.083       .  S
C1388      C1391   1.367       .  A
S1389      C1390   1.719       .  A
C1390      C1391   1.385       .  A
C1391      H1397   1.083       .  S
S1392      C1393   1.721       .  A
C1393      C1394   1.386       .  A
C1394      H1398   1.083   1_565  S
C1399      C1404   1.385       .  A
C1399      C1400   1.406       .  A
C1399      S1405   1.717       .  A
C1400      C1401   1.409       .  A
C1401      C1410   1.371       .  A
C1401      C1402   1.385       .  A
C1402      C1403   1.398       .  A
C1402      S1408   1.710       .  A
C1403      C1404   1.402       .  A
C1403      H1412   1.083       .  S
C1404      C1407   1.365       .  A
S1405      C1406   1.728       .  A
C1406      C1407   1.388       .  A
C1407      H1413   1.083       .  S
S1408      C1409   1.720       .  A
C1409      C1410   1.394       .  A
C1415      C1420   1.388       .  A
C1415      C1416   1.397       .  A
C1415      S1421   1.703       .  A
C1416      C1417   1.399       .  A
C1416      H1427   1.083       .  S
C1417      C1426   1.364       .  A
C1417      C1418   1.388       .  A
C1418      C1419   1.398       .  A
C1418      S1424   1.704       .  A
C1419      C1420   1.400       .  A
C1419      H1428   1.083       .  S
C1420      C1423   1.365       .  A
S1421      C1422   1.719       .  A
C1422      C1423   1.382       .  A
C1423      H1429   1.083       .  S
S1424      C1425   1.718       .  A
C1425      C1426   1.380       .  A
C1426      H1430   1.083       .  S
C1431      C1436   1.386       .  A
C1431      C1432   1.401       .  A
C1431      S1437   1.706       .  A
C1432      C1433   1.401       .  A
C1432      H1443   1.083       .  S
C1433      C1442   1.371       .  A
C1433      C1434   1.386       .  A
C1434      C1435   1.410       .  A
C1434      S1440   1.716       .  A
C1435      C1436   1.410       .  A
C1435      H1444   1.082       .  S
C1436      C1439   1.381       .  A
S1437      C1438   1.721       .  A
C1438      C1439   1.392       .  A
C1439      H1445   1.083       .  S
S1440      C1441   1.727       .  A
C1441      C1442   1.386       .  A
C1442      H1446   1.083       .  S
