geometry optimzed in LAMMPS
_audit_creation_date              2020-12-01 
_audit_creation_method            'lammps2cif' 
_symmetry_space_group_name_H-M    'P1' 
_symmetry_Int_Tables_number       1 
_symmetry_cell_setting            triclinic 
loop_ 
_symmetry_equiv_pos_as_xyz 
  x,y,z 
_cell_length_a                    26.10247535 
_cell_length_b                    26.527681290743125 
_cell_length_c                    23.653092281445712 
_cell_angle_alpha                 89.89186980650668 
_cell_angle_beta                  89.98392994436895 
_cell_angle_gamma                 121.26166090019429 
loop_ 
_atom_site_label 
_atom_site_type_symbol 
_atom_site_fract_x 
_atom_site_fract_y 
_atom_site_fract_z 
_atom_site_charge 
O1          O  0.14645227  0.22810449  0.21397013    -0.85000
O2          O  0.24197563  0.33500352  0.18018947    -0.82100
C3          C  0.27348345  0.39021523  0.17412178     0.98400
O4          O  0.26622204  0.42411434  0.20661466    -0.82100
O5          O  0.15938106  0.41421976  0.18435994    -0.84700
C6          C  0.10359325  0.38807597  0.17725059     1.03000
O7          O  0.06913245  0.34408979  0.20735392    -0.77500
O8          O  0.08688729  0.25411997  0.17849755    -0.77700
C9          C  0.11027974  0.22292349  0.17605823     1.02900
O10         O  0.17078166  0.26283494  0.32873145    -0.85000
O11         O  0.27661591  0.36473656  0.29499824    -0.82100
C12         C  0.28337438  0.40569814  0.32709370     0.98500
O13         O  0.24456025  0.42059589  0.32678900    -0.82100
O14         O  0.13557492  0.41227860  0.30411301    -0.84700
C15         C  0.09186024  0.37281295  0.33280388     1.02900
O16         O  0.07009064  0.31882662  0.32314734    -0.77100
O17         O  0.07816313  0.22310504  0.29795485    -0.77700
C18         C  0.11549342  0.22457459  0.33311688     1.02900
Cr19       Cr  0.20541028  0.30032935  0.25480224     1.93700
Cr20       Cr  0.19822060  0.41166859  0.25560866     1.93200
Cr21       Cr  0.08254090  0.28851133  0.25168301     1.39100
O22         O  0.16200139  0.33394690  0.25477719    -1.22800
C23         C  0.99985457  0.50363614  0.04014250    -0.02200
C24         C  0.00951640  0.50210283  0.46287461    -0.02200
O25         O  0.25233233  0.17051662  0.81743562    -0.85000
O26         O  0.35254286  0.27811444  0.78299587    -0.82100
C27         C  0.39367551  0.28788958  0.81701653     0.98400
O28         O  0.41797671  0.25705835  0.81484465    -0.82100
O29         O  0.42749191  0.15872375  0.79368324    -0.84700
C30         C  0.39340062  0.11711446  0.82652122     1.03000
O31         O  0.33716394  0.09331025  0.82257576    -0.77500
O32         O  0.22833681  0.08116331  0.79397559    -0.77700
C33         C  0.22050029  0.11504348  0.82523818     1.02900
O34         O  0.22468739  0.14249858  0.70127612    -0.85000
O35         O  0.33010575  0.24222800  0.66761356    -0.82100
C36         C  0.38606284  0.27588453  0.66009480     0.98500
O37         O  0.42224863  0.27631926  0.69554216    -0.82100
O38         O  0.42009197  0.17288987  0.67419162    -0.84700
C39         C  0.39723426  0.11759607  0.67053246     1.02900
O40         O  0.35852267  0.08417471  0.70620225    -0.77500
O41         O  0.25536597  0.08281476  0.67673669    -0.77700
C42         C  0.22031191  0.10188658  0.67062728     1.02900
Cr43       Cr  0.29367665  0.20552602  0.74271650     1.93700
Cr44       Cr  0.41535811  0.21271704  0.74490122     1.93200
Cr45       Cr  0.29804495  0.09208074  0.74960530     1.39100
O46         O  0.33573047  0.17012119  0.74608514    -1.22800
C47         C  0.49726903  0.00217460  0.96725803    -0.02200
C48         C  0.49899939  0.99878964  0.53417536    -0.02200
C49         C  0.42729877  0.43147003  0.88588552    -0.11900
C50         C  0.45918554  0.43664768  0.93728674     0.05100
C51         C  0.46229975  0.38388847  0.94775150    -0.07200
C52         C  0.44082805  0.33738507  0.90817506    -0.08000
C53         C  0.41324043  0.33708887  0.85818917    -0.02500
C54         C  0.40378290  0.38374851  0.84879471     0.04300
N55         N  0.37216956  0.38548018  0.80010485     0.66800
H56         H  0.42038668  0.46518906  0.86977254     0.15700
H57         H  0.44698398  0.30066909  0.91677430     0.15400
N58         N  0.99170699  0.37544769  0.99384529     0.74500
O59         O  0.31706597  0.36729537  0.80453051    -0.38900
O60         O  0.40138854  0.41915055  0.75954793    -0.38900
O61         O  0.95895805  0.33286686  0.02647109    -0.39600
O62         O  0.04439026  0.38675103  0.98533436    -0.39700
C63         C  0.16041196  0.12144400  0.90606626    -0.11900
C64         C  0.17084144  0.08723387  0.86849928     0.05100
C65         C  0.13164583  0.02563855  0.87156899    -0.07200
C66         C  0.08069871  0.00092146  0.90591146    -0.08000
C67         C  0.06512983  0.03368157  0.94231068    -0.02500
C68         C  0.11044560  0.09690234  0.94331715     0.04300
N69         N  0.10628206  0.13971082  0.97655461     0.66800
H70         H  0.19075007  0.16884807  0.90557707     0.15700
H71         H  0.05418293  0.95423272  0.90188521     0.15400
N72         N  0.14257118  0.98584896  0.84059302     0.74500
O73         O  0.14935426  0.17149046  0.00931142    -0.38900
O74         O  0.07670085  0.16145277  0.95770606    -0.38900
O75         O  0.16819418  0.96261277  0.86521273    -0.39600
O76         O  0.11306771  0.96238525  0.79613118    -0.39700
C77         C  0.38690187  0.05624088  0.91049826    -0.11900
C78         C  0.42052156  0.09389091  0.86646619     0.05100
C79         C  0.47748329  0.10269495  0.85659701    -0.07200
C80         C  0.49812712  0.07320210  0.88915980    -0.08000
C81         C  0.46902167  0.03855762  0.93871849    -0.02500
C82         C  0.40800328  0.02666242  0.94435396     0.04300
N83         N  0.36163848  0.97841352  0.97520088     0.66800
H84         H  0.34121191  0.04585647  0.91631189     0.15700
H85         H  0.03591726  0.07456231  0.86954484     0.15400
N86         N  0.51366791  0.13692343  0.80972904     0.74500
O87         O  0.33458551  0.98956972  0.01278994    -0.38900
O88         O  0.33223428  0.42959984  0.94999258    -0.38900
O89         O  0.06061794  0.18607081  0.81899768    -0.39600
O90         O  0.50738649  0.11223238  0.76256167    -0.39700
C91         C  0.37435440  0.33377681  0.58289288    -0.11900
C92         C  0.41085023  0.31943351  0.61289975     0.05100
C93         C  0.47225975  0.35109569  0.59961432    -0.07200
C94         C  0.49598881  0.40342718  0.56887852    -0.08000
C95         C  0.46237795  0.42828085  0.54997594    -0.02500
C96         C  0.39870165  0.38418357  0.54787683     0.04300
N97         N  0.35628762  0.38674754  0.51211123     0.66800
H98         H  0.32609232  0.30585930  0.58673847     0.15700
H99         H  0.04367518  0.42796556  0.56534687     0.15400
N100        N  0.51234432  0.33347614  0.61980756     0.74500
O101        O  0.34413664  0.35888421  0.46605426    -0.38900
O102        O  0.31514331  0.39115961  0.53510092    -0.38900
O103        O  0.52773743  0.30639629  0.58668774    -0.39600
O104        O  0.04448770  0.35898812  0.66245741    -0.39700
C105        C  0.11620423  0.07128934  0.54762519    -0.11900
C106        C  0.05967052  0.02756334  0.56956610     0.05100
C107        C  0.05983129  0.01521998  0.62890048    -0.07200
C108        C  0.11363325  0.03387026  0.65743634    -0.08000
C109        C  0.16861286  0.07322285  0.63284587    -0.02500
C110        C  0.16932572  0.09598530  0.57930947     0.04300
N111        N  0.22175739  0.14811921  0.55883239     0.66800
H112        H  0.12112070  0.09043903  0.50731063     0.15700
H113        H  0.11207937  0.02193711  0.70154569     0.15400
N114        N  0.00646539  0.48628182  0.66245047     0.74500
O115        O  0.25861276  0.14404206  0.52760448    -0.38900
O116        O  0.22490736  0.19708107  0.56277849    -0.38900
O117        O  0.99283182  0.43831507  0.68629483    -0.39600
O118        O  0.98970269  0.01809612  0.68569072    -0.39700
C119        C  0.41475992  0.00258095  0.59193416    -0.11900
C120        C  0.47012261  0.03427881  0.56226960     0.05100
C121        C  0.49986802  0.09820412  0.56970813    -0.07200
C122        C  0.47210611  0.12381794  0.59969125    -0.08000
C123        C  0.41760898  0.09012853  0.62747768    -0.02500
C124        C  0.38746403  0.02866174  0.62059363     0.04300
N125        N  0.32928742  0.99096595  0.64465697     0.66800
H126        H  0.39291018  0.95663370  0.59907782     0.15700
H127        H  0.49709810  0.17113248  0.60626545     0.15400
N128        N  0.56228429  0.13882633  0.55956147     0.74500
O129        O  0.28466219  0.99187840  0.62545391    -0.38900
O130        O  0.32295179  0.95903867  0.68687031    -0.38900
O131        O  0.57654517  0.17930863  0.52375695    -0.39600
O132        O  0.59656128  0.15154634  0.60165785    -0.39700
C133        C  0.10970761  0.43755573  0.41260470    -0.11900
C134        C  0.06825747  0.39224133  0.37892873     0.05100
C135        C  0.00732279  0.36870969  0.39079495    -0.07200
C136        C  0.99050264  0.40074919  0.42550052    -0.08000
C137        C  0.03299929  0.45734595  0.44783910    -0.02500
C138        C  0.09259839  0.46538286  0.45185317     0.04300
N139        N  0.13347607  0.48929419  0.49836530     0.66800
H140        H  0.15627341  0.44953593  0.41079652     0.15700
H141        H  0.44315885  0.38264577  0.43091187     0.15400
N142        N  0.96187636  0.31544017  0.36504434     0.74500
O143        O  0.18441938  0.53368608  0.48841873    -0.38900
O144        O  0.13286820  0.95274631  0.53303208    -0.38900
O145        O  0.93997977  0.26788643  0.39258000    -0.39600
O146        O  0.93267933  0.31836194  0.32404613    -0.39700
C147        C  0.39126145  0.44112882  0.33775864    -0.11900
C148        C  0.33998857  0.43705728  0.36091505     0.05100
C149        C  0.34608016  0.46401094  0.41353770    -0.07200
C150        C  0.39893140  0.48385241  0.44565850    -0.08000
C151        C  0.44878316  0.48012678  0.42649131    -0.02500
C152        C  0.44582042  0.46732950  0.36701286     0.04300
N153        N  0.49810550  0.48704216  0.33301024     0.66800
H154        H  0.39041408  0.42788922  0.29423624     0.15700
H155        H  0.39916166  0.50229913  0.48557180     0.15400
N156        N  0.30027153  0.47330020  0.43454532     0.74500
O157        O  0.52086489  0.53752743  0.31083941    -0.38900
O158        O  0.50475941  0.44908945  0.30752841    -0.38900
O159        O  0.26301835  0.43821006  0.47044538    -0.39600
O160        O  0.30486881  0.52249648  0.42632010    -0.39700
C161        C  0.12690398  0.14750971  0.37676488    -0.11900
C162        C  0.09526424  0.17611656  0.37420682     0.05100
C163        C  0.04142793  0.15241197  0.40404619    -0.07200
C164        C  0.02155801  0.10167776  0.43687124    -0.08000
C165        C  0.04858999  0.06681748  0.43606140    -0.02500
C166        C  0.10362599  0.09239959  0.40300040     0.04300
N167        N  0.13625441  0.06450020  0.38942131     0.66800
H168        H  0.16763709  0.16488457  0.35190528     0.15700
H169        H  0.48150020  0.08813008  0.46070606     0.15400
N170        N  0.00556093  0.17866531  0.40132854     0.74500
O171        O  0.12066628  0.03258335  0.34585787    -0.38900
O172        O  0.19132546  0.09215842  0.40160997    -0.38900
O173        O  0.45910931  0.15493780  0.37094132    -0.39600
O174        O  0.01112780  0.21455471  0.43924244    -0.39700
C175        C  0.11362952  0.45364830  0.09619696    -0.11900
C176        C  0.07753573  0.41079202  0.13586976     0.05100
C177        C  0.01691070  0.39233225  0.13742020    -0.07200
C178        C  0.99523023  0.42045283  0.10469540    -0.08000
C179        C  0.03001118  0.46788125  0.06598788    -0.02500
C180        C  0.09176268  0.48103498  0.06027623     0.04300
N181        N  0.13628202  0.02395459  0.02283225     0.66800
H182        H  0.16054311  0.46723385  0.09337640     0.15700
H183        H  0.44840269  0.40134879  0.11196346     0.15400
N184        N  0.97535155  0.34565923  0.17363696     0.74500
O185        O  0.16872199  0.07633836  0.03980847    -0.38900
O186        O  0.15996999  0.00564328  0.98842162    -0.38900
O187        O  0.45444026  0.35827790  0.21566859    -0.39600
O188        O  0.44726526  0.29364306  0.15479839    -0.39700
C189        C  0.38538024  0.42068641  0.05412982    -0.11900
C190        C  0.43623575  0.47558875  0.07142359     0.05100
C191        C  0.43099301  0.49220166  0.12873733    -0.07200
C192        C  0.37580978  0.46791029  0.15523003    -0.08000
C193        C  0.32565301  0.41749150  0.13526905    -0.02500
C194        C  0.33092925  0.39197756  0.08521158     0.04300
N195        N  0.28181586  0.33714888  0.06553225     0.66800
H196        H  0.38778842  0.39811356  0.01763276     0.15700
H197        H  0.37452860  0.48430639  0.19689884     0.15400
N198        N  0.48066534  0.02593506  0.16592353     0.74500
O199        O  0.23608793  0.33514917  0.04523742    -0.38900
O200        O  0.27996284  0.28975491  0.07698951    -0.38900
O201        O  0.48492772  0.07018663  0.19046799    -0.39600
O202        O  0.50524331  0.00082943  0.18886027    -0.39700
C203        C  0.04475262  0.16371376  0.09607792    -0.11900
C204        C  0.09168351  0.17635612  0.13264446     0.05100
C205        C  0.11395658  0.13845578  0.13285289    -0.07200
C206        C  0.08546539  0.08681318  0.10160583    -0.08000
C207        C  0.03575688  0.06965332  0.06481754    -0.02500
C208        C  0.01513573  0.11114038  0.06442906     0.04300
N209        N  0.45957187  0.09918407  0.04118043     0.66800
H210        H  0.02625048  0.19206518  0.09626853     0.15700
H211        H  0.09930319  0.05763975  0.11550775     0.15400
N212        N  0.16185098  0.14766535  0.16930743     0.74500
O213        O  0.41523238  0.07802972  0.07430288    -0.38900
O214        O  0.46216586  0.13413220  0.00340972    -0.38900
O215        O  0.14958081  0.12049184  0.21590291    -0.39600
O216        O  0.21385531  0.16951068  0.14898236    -0.39700
O217        O  0.14644841  0.72809817  0.21397283    -0.85000
O218        O  0.24197411  0.83499447  0.18019061    -0.82100
C219        C  0.27348007  0.89020590  0.17411981     0.98400
O220        O  0.26621898  0.92410585  0.20661156    -0.82100
O221        O  0.15937973  0.91421119  0.18435607    -0.84700
C222        C  0.10359183  0.88806894  0.17724844     1.03000
O223        O  0.06913129  0.84408602  0.20735530    -0.77500
O224        O  0.08688630  0.75411697  0.17849932    -0.77700
C225        C  0.11027916  0.72292096  0.17605888     1.02900
O226        O  0.17077880  0.76283160  0.32873462    -0.85000
O227        O  0.27661468  0.86473117  0.29499967    -0.82100
C228        C  0.28337495  0.90569525  0.32709272     0.98500
O229        O  0.24456201  0.92059470  0.32678596    -0.82100
O230        O  0.13557587  0.91227616  0.30410897    -0.84700
C231        C  0.09186246  0.87281189  0.33280195     1.02900
O232        O  0.07009244  0.81882502  0.32314824    -0.77100
O233        O  0.07816094  0.72310139  0.29795663    -0.77700
C234        C  0.11549037  0.72457185  0.33312020     1.02900
Cr235      Cr  0.20540813  0.80032326  0.25480441     1.93700
Cr236      Cr  0.19822023  0.91166362  0.25560559     1.93200
Cr237      Cr  0.08254001  0.78850786  0.25168443     1.39100
O238        O  0.16200052  0.83394216  0.25477765    -1.22800
C239        C  0.99985342  0.00363263  0.04014494    -0.02200
C240        C  0.00952235  0.00210528  0.46287062    -0.02200
O241        O  0.25232925  0.67052321  0.81742952    -0.85000
O242        O  0.35254460  0.77811841  0.78299204    -0.82100
C243        C  0.39367526  0.78789119  0.81701445     0.98400
O244        O  0.41797439  0.75705803  0.81484411    -0.82100
O245        O  0.42748807  0.65872317  0.79368096    -0.84700
C246        C  0.39339667  0.61711609  0.82652053     1.03000
O247        O  0.33716033  0.59331473  0.82257682    -0.77500
O248        O  0.22833543  0.58116940  0.79397385    -0.77700
C249        C  0.22049777  0.61505025  0.82523375     1.02900
O250        O  0.22468829  0.64250461  0.70126909    -0.85000
O251        O  0.33011136  0.74223271  0.66760898    -0.82100
C252        C  0.38606905  0.77588887  0.66009362     0.98500
O253        O  0.42225184  0.77632309  0.69554389    -0.82100
O254        O  0.42008865  0.67289079  0.67419056    -0.84700
C255        C  0.39722994  0.61759675  0.67053283     1.02900
O256        O  0.35851933  0.58417678  0.70620389    -0.77500
O257        O  0.25536219  0.58281486  0.67673724    -0.77700
C258        C  0.22030921  0.60188761  0.67062545     1.02900
Cr259      Cr  0.29367748  0.70553130  0.74271119     1.93700
Cr260      Cr  0.41535652  0.71271811  0.74490051     1.93200
Cr261      Cr  0.29804212  0.59208396  0.74960551     1.39100
O262        O  0.33572888  0.67012429  0.74608302    -1.22800
C263        C  0.49726689  0.50217646  0.96725568    -0.02200
C264        C  0.49899278  0.49878611  0.53417904    -0.02200
C265        C  0.42730537  0.93147393  0.88588209    -0.11900
C266        C  0.45918702  0.93664769  0.93728591     0.05100
C267        C  0.46229558  0.88388587  0.94775167    -0.07200
C268        C  0.44082831  0.83738540  0.90817266    -0.08000
C269        C  0.41324135  0.83709051  0.85818684    -0.02500
C270        C  0.40378463  0.88375079  0.84879309     0.04300
N271        N  0.37216263  0.88547881  0.80010856     0.66800
H272        H  0.42039804  0.96519556  0.86976765     0.15700
H273        H  0.44698151  0.80066788  0.91677276     0.15400
N274        N  0.99168445  0.87543542  0.99385532     0.74500
O275        O  0.31705960  0.86729351  0.80454329    -0.38900
O276        O  0.40137386  0.91914518  0.75954658    -0.38900
O277        O  0.95892001  0.83285537  0.02647598    -0.39600
O278        O  0.04436692  0.88672961  0.98536009    -0.39700
C279        C  0.16040900  0.62144946  0.90606218    -0.11900
C280        C  0.17083818  0.58724036  0.86849377     0.05100
C281        C  0.13164084  0.52564516  0.87156003    -0.07200
C282        C  0.08069372  0.50092746  0.90590181    -0.08000
C283        C  0.06512687  0.53368563  0.94230584    -0.02500
C284        C  0.11044181  0.59690703  0.94331223     0.04300
N285        N  0.10627644  0.63971578  0.97654768     0.66800
H286        H  0.19074749  0.66885348  0.90557400     0.15700
H287        H  0.05417467  0.45423972  0.90186795     0.15400
N288        N  0.14256218  0.48585585  0.84057842     0.74500
O289        O  0.14935097  0.67150202  0.00929978    -0.38900
O290        O  0.07668770  0.66145026  0.95770082    -0.38900
O291        O  0.16817444  0.46260763  0.86519593    -0.39600
O292        O  0.11306277  0.46240339  0.79611203    -0.39700
C293        C  0.38689903  0.55624427  0.91049831    -0.11900
C294        C  0.42051721  0.59389154  0.86646432     0.05100
C295        C  0.47747690  0.60269194  0.85659204    -0.07200
C296        C  0.49812018  0.57319825  0.88915391    -0.08000
C297        C  0.46901756  0.53855783  0.93871556    -0.02500
C298        C  0.40800028  0.52666538  0.94435354     0.04300
N299        N  0.36163528  0.47841828  0.97520185     0.66800
H300        H  0.34121009  0.54586222  0.91631390     0.15700
H301        H  0.03590876  0.57455646  0.86953745     0.15400
N302        N  0.51366054  0.63691912  0.80972306     0.74500
O303        O  0.33458391  0.48957695  0.01279058    -0.38900
O304        O  0.33223944  0.92959546  0.94999063    -0.38900
O305        O  0.06061113  0.68606658  0.81899038    -0.39600
O306        O  0.50737700  0.61222741  0.76255570    -0.39700
C307        C  0.37436757  0.83377876  0.58288505    -0.11900
C308        C  0.41085920  0.81943790  0.61289915     0.05100
C309        C  0.47227649  0.85110698  0.59962020    -0.07200
C310        C  0.49597772  0.90342265  0.56888665    -0.08000
C311        C  0.46239316  0.92828702  0.54997485    -0.02500
C312        C  0.39871309  0.88418345  0.54786933     0.04300
N313        N  0.35630258  0.88674519  0.51209720     0.66800
H314        H  0.32609759  0.80585359  0.58672521     0.15700
H315        H  0.04382381  0.92804461  0.56534144     0.15400
N316        N  0.51235611  0.83348678  0.61982190     0.74500
O317        O  0.34415643  0.85888000  0.46604180    -0.38900
O318        O  0.31515485  0.89115522  0.53508126    -0.38900
O319        O  0.52775075  0.80640326  0.58670840    -0.39600
O320        O  0.04449701  0.85900190  0.66247268    -0.39700
C321        C  0.11619617  0.57128686  0.54762815    -0.11900
C322        C  0.05966343  0.52755731  0.56956864     0.05100
C323        C  0.05982685  0.51521008  0.62890144    -0.07200
C324        C  0.11363055  0.53386365  0.65743602    -0.08000
C325        C  0.16860876  0.57322092  0.63284564    -0.02500
C326        C  0.16931853  0.59598388  0.57931066     0.04300
N327        N  0.22174903  0.64811768  0.55883180     0.66800
H328        H  0.12111147  0.59043919  0.50731614     0.15700
H329        H  0.11207850  0.52192988  0.70154461     0.15400
N330        N  0.00646854  0.98629437  0.66244850     0.74500
O331        O  0.25860910  0.64404024  0.52761132    -0.38900
O332        O  0.22489516  0.69707831  0.56276985    -0.38900
O333        O  0.99283251  0.93832804  0.68629526    -0.39600
O334        O  0.98969909  0.51808172  0.68569596    -0.39700
C335        C  0.41475718  0.50257919  0.59194371    -0.11900
C336        C  0.47011667  0.53427586  0.56227450     0.05100
C337        C  0.49986076  0.59820143  0.56970882    -0.07200
C338        C  0.47209789  0.62381605  0.59968887    -0.08000
C339        C  0.41760303  0.59012725  0.62747913    -0.02500
C340        C  0.38746077  0.52865976  0.62060171     0.04300
N341        N  0.32928807  0.49096333  0.64467260     0.66800
H342        H  0.39291151  0.45663174  0.59909535     0.15700
H343        H  0.49708862  0.67113126  0.60625932     0.15400
N344        N  0.56227742  0.63882330  0.55956428     0.74500
O345        O  0.28465726  0.49186653  0.62547117    -0.38900
O346        O  0.32296097  0.45904266  0.68688903    -0.38900
O347        O  0.57654027  0.67930655  0.52376036    -0.39600
O348        O  0.59655254  0.65154181  0.60166192    -0.39700
C349        C  0.10971311  0.93755931  0.41259854    -0.11900
C350        C  0.06826170  0.89224265  0.37892566     0.05100
C351        C  0.00732764  0.86871086  0.39079370    -0.07200
C352        C  0.99050860  0.90075124  0.42549875    -0.08000
C353        C  0.03300521  0.95734852  0.44783561    -0.02500
C354        C  0.09260474  0.96538685  0.45184721     0.04300
N355        N  0.13348215  0.98929652  0.49835928     0.66800
H356        H  0.15627914  0.94954023  0.41078880     0.15700
H357        H  0.44316550  0.88264814  0.43090995     0.15400
N358        N  0.96188039  0.81544138  0.36504373     0.74500
O359        O  0.18442447  0.03369094  0.48841312    -0.38900
O360        O  0.13286195  0.45274606  0.53304137    -0.38900
O361        O  0.93997944  0.76788865  0.39258170    -0.39600
O362        O  0.93268709  0.81836359  0.32404239    -0.39700
C363        C  0.39126241  0.94112552  0.33775704    -0.11900
C364        C  0.33999012  0.93705522  0.36091354     0.05100
C365        C  0.34608358  0.96401132  0.41353527    -0.07200
C366        C  0.39893637  0.98385513  0.44565463    -0.08000
C367        C  0.44878776  0.98012841  0.42648777    -0.02500
C368        C  0.44582252  0.96732761  0.36700990     0.04300
N369        N  0.49810617  0.98703825  0.33300584     0.66800
H370        H  0.39041370  0.92788395  0.29423515     0.15700
H371        H  0.39916783  0.00230435  0.48556657     0.15400
N372        N  0.30027548  0.97330122  0.43454329     0.74500
O373        O  0.52086634  0.03752359  0.31083500    -0.38900
O374        O  0.50475693  0.94908415  0.30752271    -0.38900
O375        O  0.26302333  0.93821207  0.47044458    -0.39600
O376        O  0.30487361  0.02249792  0.42631848    -0.39700
C377        C  0.12690056  0.64750892  0.37677252    -0.11900
C378        C  0.09526018  0.67611488  0.37421157     0.05100
C379        C  0.04142265  0.65240990  0.40404915    -0.07200
C380        C  0.02155183  0.60167564  0.43687448    -0.08000
C381        C  0.04858410  0.56681550  0.43606610    -0.02500
C382        C  0.10362174  0.59239865  0.40300767     0.04300
N383        N  0.13625210  0.56450063  0.38943178     0.66800
H384        H  0.16763509  0.66488443  0.35191499     0.15700
H385        H  0.48149299  0.58812753  0.46070776     0.15400
N386        N  0.00555497  0.67866237  0.40132887     0.74500
O387        O  0.12066729  0.53258465  0.34586785    -0.38900
O388        O  0.19132256  0.59216045  0.40162294    -0.38900
O389        O  0.45910998  0.65493931  0.37093263    -0.39600
O390        O  0.01111108  0.71454243  0.43924840    -0.39700
C391        C  0.11362971  0.95364608  0.09619891    -0.11900
C392        C  0.07753442  0.91078456  0.13586700     0.05100
C393        C  0.01690904  0.89232330  0.13741603    -0.07200
C394        C  0.99523033  0.92044982  0.10469776    -0.08000
C395        C  0.03001105  0.96787895  0.06599079    -0.02500
C396        C  0.09176391  0.98103587  0.06028114     0.04300
N397        N  0.13627679  0.52394379  0.02281784     0.66800
H398        H  0.16054426  0.96723460  0.09338099     0.15700
H399        H  0.44840389  0.90134853  0.11196944     0.15400
N400        N  0.97534739  0.84564116  0.17362350     0.74500
O401        O  0.16872095  0.57633154  0.03978219    -0.38900
O402        O  0.15995708  0.50562261  0.98840906    -0.38900
O403        O  0.45442395  0.85824746  0.21565406    -0.39600
O404        O  0.44727254  0.79362789  0.15477718    -0.39700
C405        C  0.38537979  0.92067707  0.05412963    -0.11900
C406        C  0.43623234  0.97558266  0.07142215     0.05100
C407        C  0.43098498  0.99219809  0.12873293    -0.07200
C408        C  0.37579994  0.96790904  0.15522053    -0.08000
C409        C  0.32564764  0.91748286  0.13526455    -0.02500
C410        C  0.33092916  0.89196468  0.08521221     0.04300
N411        N  0.28182445  0.83712522  0.06554248     0.66800
H412        H  0.38779146  0.89810302  0.01763525     0.15700
H413        H  0.37451628  0.98430990  0.19688615     0.15400
N414        N  0.48067706  0.52594535  0.16592239     0.74500
O415        O  0.23608728  0.83510587  0.04524656    -0.38900
O416        O  0.27998916  0.78974160  0.07700899    -0.38900
O417        O  0.48493534  0.57019458  0.19046807    -0.39600
O418        O  0.50526585  0.50084777  0.18885399    -0.39700
C419        C  0.04475228  0.66371472  0.09607797    -0.11900
C420        C  0.09168627  0.67635846  0.13264081     0.05100
C421        C  0.11396535  0.63846324  0.13284148    -0.07200
C422        C  0.08547489  0.58682142  0.10159306    -0.08000
C423        C  0.03575991  0.56965751  0.06481232    -0.02500
C424        C  0.01513559  0.61114207  0.06442841     0.04300
N425        N  0.45956920  0.59918343  0.04118414     0.66800
H426        H  0.02624694  0.69206339  0.09627321     0.15700
H427        H  0.09931956  0.55765197  0.11548889     0.15400
N428        N  0.16186587  0.64767708  0.16928947     0.74500
O429        O  0.41523247  0.57802904  0.07431000    -0.38900
O430        O  0.46215903  0.63413033  0.00341420    -0.38900
O431        O  0.14960354  0.62049978  0.21588239    -0.39600
O432        O  0.21386873  0.66952942  0.14895878    -0.39700
O433        O  0.64645227  0.22810449  0.21397014    -0.85000
O434        O  0.74197564  0.33500351  0.18018948    -0.82100
C435        C  0.77348347  0.39021521  0.17412179     0.98400
O436        O  0.76622205  0.42411433  0.20661465    -0.82100
O437        O  0.65938105  0.41421973  0.18435991    -0.84700
C438        C  0.60359323  0.38807595  0.17725060     1.03000
O439        O  0.56913245  0.34408979  0.20735395    -0.77500
O440        O  0.58688727  0.25411996  0.17849757    -0.77700
C441        C  0.61027973  0.22292348  0.17605825     1.02900
O442        O  0.67078166  0.26283494  0.32873146    -0.85000
O443        O  0.77661591  0.36473656  0.29499825    -0.82100
C444        C  0.78337437  0.40569815  0.32709370     0.98500
O445        O  0.74456025  0.42059591  0.32678898    -0.82100
O446        O  0.63557493  0.41227861  0.30411298    -0.84700
C447        C  0.59186027  0.37281297  0.33280388     1.02900
O448        O  0.57009068  0.31882663  0.32314736    -0.77100
O449        O  0.57816314  0.22310504  0.29795486    -0.77700
C450        C  0.61549343  0.22457459  0.33311690     1.02900
Cr451      Cr  0.70541029  0.30032935  0.25480226     1.93700
Cr452      Cr  0.69822060  0.41166859  0.25560863     1.93200
Cr453      Cr  0.58254090  0.28851133  0.25168303     1.39100
O454        O  0.66200140  0.33394690  0.25477719    -1.22800
C455        C  0.49985456  0.50363615  0.04014251    -0.02200
C456        C  0.50951641  0.50210284  0.46287462    -0.02200
O457        O  0.75233233  0.17051659  0.81743561    -0.85000
O458        O  0.85254287  0.27811441  0.78299587    -0.82100
C459        C  0.89367552  0.28788955  0.81701652     0.98400
O460        O  0.91797673  0.25705833  0.81484463    -0.82100
O461        O  0.92749190  0.15872371  0.79368322    -0.84700
C462        C  0.89340060  0.11711442  0.82652120     1.03000
O463        O  0.83716393  0.09331022  0.82257574    -0.77500
O464        O  0.72833679  0.08116329  0.79397557    -0.77700
C465        C  0.72050029  0.11504346  0.82523816     1.02900
O466        O  0.72468740  0.14249857  0.70127610    -0.85000
O467        O  0.83010576  0.24222798  0.66761355    -0.82100
C468        C  0.88606285  0.27588451  0.66009478     0.98500
O469        O  0.92224865  0.27631924  0.69554213    -0.82100
O470        O  0.92009196  0.17288984  0.67419161    -0.84700
C471        C  0.89723425  0.11759604  0.67053246     1.02900
O472        O  0.85852266  0.08417467  0.70620223    -0.77500
O473        O  0.75536596  0.08281474  0.67673667    -0.77700
C474        C  0.72031191  0.10188657  0.67062726     1.02900
Cr475      Cr  0.79367666  0.20552600  0.74271649     1.93700
Cr476      Cr  0.91535811  0.21271701  0.74490120     1.93200
Cr477      Cr  0.79804494  0.09208071  0.74960528     1.39100
O478        O  0.83573047  0.17012117  0.74608513    -1.22800
C479        C  0.99726902  0.00217457  0.96725802    -0.02200
C480        C  0.99899941  0.99878962  0.53417536    -0.02200
C481        C  0.92729870  0.43146996  0.88588556    -0.11900
C482        C  0.95918553  0.43664764  0.93728674     0.05100
C483        C  0.96229979  0.38388845  0.94775149    -0.07200
C484        C  0.94082810  0.33738506  0.90817504    -0.08000
C485        C  0.91324045  0.33708884  0.85818917    -0.02500
C486        C  0.90378286  0.38374845  0.84879474     0.04300
N487        N  0.87216952  0.38548012  0.80010488     0.66800
H488        H  0.92038653  0.46518895  0.86977262     0.15700
H489        H  0.94698406  0.30066909  0.91677427     0.15400
N490        N  0.49170694  0.37544770  0.99384531     0.74500
O491        O  0.81706596  0.36729541  0.80453055    -0.38900
O492        O  0.90138852  0.41915038  0.75954790    -0.38900
O493        O  0.45895798  0.33286688  0.02647111    -0.39600
O494        O  0.54439019  0.38675101  0.98533438    -0.39700
C495        C  0.66041200  0.12144400  0.90606628    -0.11900
C496        C  0.67084144  0.08723386  0.86849928     0.05100
C497        C  0.63164580  0.02563854  0.87156898    -0.07200
C498        C  0.58069871  0.00092146  0.90591149    -0.08000
C499        C  0.56512985  0.03368158  0.94231070    -0.02500
C500        C  0.61044564  0.09690235  0.94331719     0.04300
N501        N  0.60628215  0.13971083  0.97655468     0.66800
H502        H  0.69075013  0.16884806  0.90557710     0.15700
H503        H  0.55418295  0.95423271  0.90188529     0.15400
N504        N  0.64257110  0.98584894  0.84059296     0.74500
O505        O  0.64935436  0.17149043  0.00931149    -0.38900
O506        O  0.57670099  0.16145284  0.95770615    -0.38900
O507        O  0.66819421  0.96261281  0.86521258    -0.39600
O508        O  0.61306748  0.96238515  0.79613120    -0.39700
C509        C  0.88690189  0.05624092  0.91049828    -0.11900
C510        C  0.92052154  0.09389087  0.86646616     0.05100
C511        C  0.97748322  0.10269481  0.85659690    -0.07200
C512        C  0.99812705  0.07320197  0.88915970    -0.08000
C513        C  0.96902165  0.03855759  0.93871846    -0.02500
C514        C  0.90800328  0.02666244  0.94435398     0.04300
N515        N  0.86163848  0.97841356  0.97520092     0.66800
H516        H  0.84121196  0.04585657  0.91631195     0.15700
H517        H  0.53591736  0.07456250  0.86954495     0.15400
N518        N  0.01366777  0.13692317  0.80972884     0.74500
O519        O  0.83458555  0.98956980  0.01278999    -0.38900
O520        O  0.83223427  0.42959987  0.94999263    -0.38900
O521        O  0.56061806  0.18607106  0.81899800    -0.39600
O522        O  0.00738623  0.11223201  0.76256152    -0.39700
C523        C  0.87435438  0.33377679  0.58289288    -0.11900
C524        C  0.91085022  0.31943348  0.61289972     0.05100
C525        C  0.97225971  0.35109563  0.59961426    -0.07200
C526        C  0.99598888  0.40342718  0.56887845    -0.08000
C527        C  0.96237792  0.42828081  0.54997592    -0.02500
C528        C  0.89870163  0.38418355  0.54787682     0.04300
N529        N  0.85628760  0.38674751  0.51211122     0.66800
H530        H  0.82609233  0.30585930  0.58673848     0.15700
H531        H  0.54367574  0.42796590  0.56534691     0.15400
N532        N  0.01234430  0.33347607  0.61980745     0.74500
O533        O  0.84413663  0.35888419  0.46605425    -0.38900
O534        O  0.81514328  0.39115957  0.53510091    -0.38900
O535        O  0.02773723  0.30639605  0.58668766    -0.39600
O536        O  0.54448756  0.35898807  0.66245764    -0.39700
C537        C  0.61620422  0.07128936  0.54762516    -0.11900
C538        C  0.55967051  0.02756335  0.56956609     0.05100
C539        C  0.55983129  0.01522001  0.62890047    -0.07200
C540        C  0.61363325  0.03387027  0.65743632    -0.08000
C541        C  0.66861286  0.07322284  0.63284585    -0.02500
C542        C  0.66932571  0.09598530  0.57930945     0.04300
N543        N  0.72175739  0.14811920  0.55883236     0.66800
H544        H  0.62112069  0.09043903  0.50731066     0.15700
H545        H  0.61207937  0.02193712  0.70154567     0.15400
N546        N  0.50646539  0.48628198  0.66245048     0.74500
O547        O  0.75861276  0.14404202  0.52760448    -0.38900
O548        O  0.72490736  0.19708105  0.56277840    -0.38900
O549        O  0.49283171  0.43831518  0.68629480    -0.39600
O550        O  0.48970277  0.01809626  0.68569074    -0.39700
C551        C  0.91475991  0.00258093  0.59193413    -0.11900
C552        C  0.97012264  0.03427879  0.56226961     0.05100
C553        C  0.99986805  0.09820410  0.56970817    -0.07200
C554        C  0.97210615  0.12381792  0.59969131    -0.08000
C555        C  0.91760899  0.09012851  0.62747768    -0.02500
C556        C  0.88746401  0.02866172  0.62059357     0.04300
N557        N  0.82928732  0.99096596  0.64465676     0.66800
H558        H  0.89291015  0.95663368  0.59907774     0.15700
H559        H  0.99709816  0.17113245  0.60626554     0.15400
N560        N  0.06228432  0.13882632  0.55956148     0.74500
O561        O  0.78466221  0.99187863  0.62545371    -0.38900
O562        O  0.82295151  0.95903848  0.68687000    -0.38900
O563        O  0.07654516  0.17930862  0.52375696    -0.39600
O564        O  0.09656132  0.15154635  0.60165784    -0.39700
C565        C  0.60970764  0.43755577  0.41260468    -0.11900
C566        C  0.56825750  0.39224136  0.37892872     0.05100
C567        C  0.50732282  0.36870970  0.39079495    -0.07200
C568        C  0.49050266  0.40074919  0.42550053    -0.08000
C569        C  0.53299931  0.45734595  0.44783911    -0.02500
C570        C  0.59259841  0.46538288  0.45185317     0.04300
N571        N  0.63347607  0.48929416  0.49836531     0.66800
H572        H  0.65627344  0.44953598  0.41079649     0.15700
H573        H  0.94315883  0.38264578  0.43091186     0.15400
N574        N  0.46187640  0.31544018  0.36504434     0.74500
O575        O  0.68441939  0.53368604  0.48841877    -0.38900
O576        O  0.63286813  0.95274626  0.53303209    -0.38900
O577        O  0.43997999  0.26788640  0.39257991    -0.39600
O578        O  0.43267924  0.31836192  0.32404624    -0.39700
C579        C  0.89126144  0.44112884  0.33775863    -0.11900
C580        C  0.83998857  0.43705730  0.36091505     0.05100
C581        C  0.84608015  0.46401093  0.41353771    -0.07200
C582        C  0.89893138  0.48385240  0.44565851    -0.08000
C583        C  0.94878315  0.48012679  0.42649131    -0.02500
C584        C  0.94582041  0.46732952  0.36701286     0.04300
N585        N  0.99810549  0.48704219  0.33301024     0.66800
H586        H  0.89041408  0.42788925  0.29423624     0.15700
H587        H  0.89916164  0.50229912  0.48557181     0.15400
N588        N  0.80027151  0.47330018  0.43454533     0.74500
O589        O  0.02086488  0.53752745  0.31083941    -0.38900
O590        O  0.00475940  0.44908948  0.30752841    -0.38900
O591        O  0.76301840  0.43821011  0.47044547    -0.39600
O592        O  0.80486869  0.52249640  0.42631998    -0.39700
C593        C  0.62690397  0.14750971  0.37676490    -0.11900
C594        C  0.59526423  0.17611657  0.37420684     0.05100
C595        C  0.54142792  0.15241197  0.40404619    -0.07200
C596        C  0.52155799  0.10167776  0.43687122    -0.08000
C597        C  0.54858996  0.06681747  0.43606140    -0.02500
C598        C  0.60362597  0.09239959  0.40300041     0.04300
N599        N  0.63625439  0.06450020  0.38942132     0.66800
H600        H  0.66763709  0.16488457  0.35190531     0.15700
H601        H  0.98150023  0.08813008  0.46070608     0.15400
N602        N  0.50556094  0.17866534  0.40132855     0.74500
O603        O  0.62066628  0.03258336  0.34585787    -0.38900
O604        O  0.69132543  0.09215839  0.40161002    -0.38900
O605        O  0.95910932  0.15493778  0.37094129    -0.39600
O606        O  0.51112784  0.21455475  0.43924245    -0.39700
C607        C  0.61362949  0.45364827  0.09619697    -0.11900
C608        C  0.57753570  0.41079200  0.13586977     0.05100
C609        C  0.51691068  0.39233225  0.13742023    -0.07200
C610        C  0.49523021  0.42045284  0.10469544    -0.08000
C611        C  0.53001116  0.46788124  0.06598791    -0.02500
C612        C  0.59176265  0.48103496  0.06027625     0.04300
N613        N  0.63628205  0.02395461  0.02283226     0.66800
H614        H  0.66054307  0.46723381  0.09337639     0.15700
H615        H  0.94840270  0.40134875  0.11196338     0.15400
N616        N  0.47535153  0.34565922  0.17363699     0.74500
O617        O  0.66872202  0.07633837  0.03980850    -0.38900
O618        O  0.65997002  0.00564331  0.98842162    -0.38900
O619        O  0.95444026  0.35827792  0.21566854    -0.39600
O620        O  0.94726529  0.29364306  0.15479836    -0.39700
C621        C  0.88538024  0.42068641  0.05412981    -0.11900
C622        C  0.93623576  0.47558874  0.07142359     0.05100
C623        C  0.93099304  0.49220162  0.12873735    -0.07200
C624        C  0.87580982  0.46791024  0.15523006    -0.08000
C625        C  0.82565303  0.41749148  0.13526907    -0.02500
C626        C  0.83092926  0.39197756  0.08521157     0.04300
N627        N  0.78181585  0.33714889  0.06553223     0.66800
H628        H  0.88778841  0.39811357  0.01763273     0.15700
H629        H  0.87452865  0.48430632  0.19689889     0.15400
N630        N  0.98066537  0.02593504  0.16592352     0.74500
O631        O  0.73608791  0.33514919  0.04523746    -0.38900
O632        O  0.77996285  0.28975491  0.07698943    -0.38900
O633        O  0.98492776  0.07018663  0.19046798    -0.39600
O634        O  0.00524334  0.00082941  0.18886026    -0.39700
C635        C  0.54475261  0.16371375  0.09607795    -0.11900
C636        C  0.59168349  0.17635610  0.13264450     0.05100
C637        C  0.61395656  0.13845575  0.13285293    -0.07200
C638        C  0.58546539  0.08681317  0.10160585    -0.08000
C639        C  0.53575689  0.06965332  0.06481755    -0.02500
C640        C  0.51513574  0.11114038  0.06442907     0.04300
N641        N  0.95957185  0.09918406  0.04118047     0.66800
H642        H  0.52625047  0.19206517  0.09626855     0.15700
H643        H  0.59930320  0.05763974  0.11550776     0.15400
N644        N  0.66185092  0.14766530  0.16930750     0.74500
O645        O  0.91523239  0.07802974  0.07430297    -0.38900
O646        O  0.96216580  0.13413217  0.00340976    -0.38900
O647        O  0.64958070  0.12049196  0.21590309    -0.39600
O648        O  0.71385521  0.16951034  0.14898240    -0.39700
O649        O  0.64644842  0.72809816  0.21397286    -0.85000
O650        O  0.74197413  0.83499446  0.18019064    -0.82100
C651        C  0.77348009  0.89020589  0.17411984     0.98400
O652        O  0.76621901  0.92410585  0.20661159    -0.82100
O653        O  0.65937977  0.91421120  0.18435607    -0.84700
C654        C  0.60359188  0.88806895  0.17724844     1.03000
O655        O  0.56913133  0.84408604  0.20735529    -0.77500
O656        O  0.58688633  0.75411698  0.17849934    -0.77700
C657        C  0.61027917  0.72292096  0.17605891     1.02900
O658        O  0.67077880  0.76283161  0.32873465    -0.85000
O659        O  0.77661469  0.86473117  0.29499970    -0.82100
C660        C  0.78337497  0.90569526  0.32709274     0.98500
O661        O  0.74456202  0.92059470  0.32678598    -0.82100
O662        O  0.63557588  0.91227617  0.30410897    -0.84700
C663        C  0.59186246  0.87281190  0.33280195     1.02900
O664        O  0.57009244  0.81882504  0.32314824    -0.77100
O665        O  0.57816095  0.72310140  0.29795665    -0.77700
C666        C  0.61549037  0.72457186  0.33312022     1.02900
Cr667      Cr  0.70540814  0.80032326  0.25480444     1.93700
Cr668      Cr  0.69822026  0.91166363  0.25560560     1.93200
Cr669      Cr  0.58254002  0.78850787  0.25168444     1.39100
O670        O  0.66200053  0.83394217  0.25477767    -1.22800
C671        C  0.49985343  0.00363264  0.04014495    -0.02200
C672        C  0.50952232  0.00210528  0.46287062    -0.02200
O673        O  0.75232926  0.67052321  0.81742951    -0.85000
O674        O  0.85254463  0.77811840  0.78299203    -0.82100
C675        C  0.89367528  0.78789117  0.81701445     0.98400
O676        O  0.91797441  0.75705801  0.81484411    -0.82100
O677        O  0.92748808  0.65872315  0.79368093    -0.84700
C678        C  0.89339668  0.61711607  0.82652050     1.03000
O679        O  0.83716034  0.59331472  0.82257680    -0.77500
O680        O  0.72833544  0.58116940  0.79397385    -0.77700
C681        C  0.72049778  0.61505025  0.82523374     1.02900
O682        O  0.72468831  0.64250462  0.70126908    -0.85000
O683        O  0.83011140  0.74223271  0.66760897    -0.82100
C684        C  0.88606909  0.77588887  0.66009361     0.98500
O685        O  0.92225188  0.77632309  0.69554389    -0.82100
O686        O  0.92008866  0.67289079  0.67419055    -0.84700
C687        C  0.89722994  0.61759674  0.67053281     1.02900
O688        O  0.85851932  0.58417677  0.70620387    -0.77500
O689        O  0.75536219  0.58281486  0.67673723    -0.77700
C690        C  0.72030921  0.60188762  0.67062544     1.02900
Cr691      Cr  0.79367751  0.70553130  0.74271118     1.93700
Cr692      Cr  0.91535654  0.71271810  0.74490050     1.93200
Cr693      Cr  0.79804213  0.59208395  0.74960549     1.39100
O694        O  0.83572889  0.67012428  0.74608300    -1.22800
C695        C  0.99726688  0.50217644  0.96725567    -0.02200
C696        C  0.99899278  0.49878608  0.53417904    -0.02200
C697        C  0.92730525  0.93147383  0.88588216    -0.11900
C698        C  0.95918701  0.93664765  0.93728593     0.05100
C699        C  0.96229565  0.88388587  0.94775166    -0.07200
C700        C  0.94082836  0.83738540  0.90817265    -0.08000
C701        C  0.91324135  0.83709048  0.85818685    -0.02500
C702        C  0.90378455  0.88375070  0.84879315     0.04300
N703        N  0.87216251  0.88547870  0.80010863     0.66800
H704        H  0.92039782  0.96519541  0.86976776     0.15700
H705        H  0.94698163  0.80066790  0.91677272     0.15400
N706        N  0.49168426  0.87543535  0.99385540     0.74500
O707        O  0.81705955  0.86729367  0.80454346    -0.38900
O708        O  0.90137374  0.91914483  0.75954651    -0.38900
O709        O  0.45891971  0.83285533  0.02647604    -0.39600
O710        O  0.54436671  0.88672946  0.98536027    -0.39700
C711        C  0.66040903  0.62144946  0.90606220    -0.11900
C712        C  0.67083819  0.58724036  0.86849377     0.05100
C713        C  0.63164084  0.52564516  0.87156002    -0.07200
C714        C  0.58069371  0.50092747  0.90590179    -0.08000
C715        C  0.56512688  0.53368564  0.94230584    -0.02500
C716        C  0.61044185  0.59690703  0.94331226     0.04300
N717        N  0.60627652  0.63971578  0.97654774     0.66800
H718        H  0.69074755  0.66885348  0.90557404     0.15700
H719        H  0.55417465  0.45423972  0.90186793     0.15400
N720        N  0.64256218  0.48585584  0.84057842     0.74500
O721        O  0.64935105  0.67150196  0.00929986    -0.38900
O722        O  0.57668783  0.66145033  0.95770090    -0.38900
O723        O  0.66817446  0.46260765  0.86519594    -0.39600
O724        O  0.61306278  0.46240337  0.79611203    -0.39700
C725        C  0.88689906  0.55624429  0.91049830    -0.11900
C726        C  0.92051721  0.59389150  0.86646427     0.05100
C727        C  0.97747687  0.60269182  0.85659194    -0.07200
C728        C  0.99812013  0.57319813  0.88915382    -0.08000
C729        C  0.96901756  0.53855780  0.93871553    -0.02500
C730        C  0.90800030  0.52666539  0.94435354     0.04300
N731        N  0.86163529  0.47841833  0.97520187     0.66800
H732        H  0.84121013  0.54586229  0.91631392     0.15700
H733        H  0.53590884  0.57455664  0.86953754     0.15400
N734        N  0.01366046  0.63691893  0.80972291     0.74500
O735        O  0.83458393  0.48957703  0.01279059    -0.38900
O736        O  0.83223940  0.92959550  0.94999068    -0.38900
O737        O  0.56061106  0.68606687  0.81899059    -0.39600
O738        O  0.00737672  0.61222718  0.76255553    -0.39700
C739        C  0.87436761  0.83377874  0.58288503    -0.11900
C740        C  0.91085924  0.81943789  0.61289914     0.05100
C741        C  0.97227655  0.85110697  0.59962017    -0.07200
C742        C  0.99597768  0.90342260  0.56888663    -0.08000
C743        C  0.96239321  0.92828701  0.54997484    -0.02500
C744        C  0.89871312  0.88418342  0.54786932     0.04300
N745        N  0.85630262  0.88674516  0.51209717     0.66800
H746        H  0.82609761  0.80585356  0.58672518     0.15700
H747        H  0.54382338  0.92804442  0.56534151     0.15400
N748        N  0.01235615  0.83348676  0.61982189     0.74500
O749        O  0.84415651  0.85887999  0.46604175    -0.38900
O750        O  0.81515485  0.89115514  0.53508123    -0.38900
O751        O  0.02775079  0.80640324  0.58670839    -0.39600
O752        O  0.54449696  0.85900190  0.66247270    -0.39700
C753        C  0.61619618  0.57128687  0.54762813    -0.11900
C754        C  0.55966344  0.52755735  0.56956864     0.05100
C755        C  0.55982685  0.51521017  0.62890145    -0.07200
C756        C  0.61363055  0.53386373  0.65743604    -0.08000
C757        C  0.66860876  0.57322094  0.63284564    -0.02500
C758        C  0.66931855  0.59598388  0.57931064     0.04300
N759        N  0.72174906  0.64811766  0.55883177     0.66800
H760        H  0.62111150  0.59043915  0.50731617     0.15700
H761        H  0.61207848  0.52193000  0.70154464     0.15400
N762        N  0.50646855  0.98629446  0.66244851     0.74500
O763        O  0.75860912  0.64404019  0.52761130    -0.38900
O764        O  0.72489522  0.69707830  0.56276981    -0.38900
O765        O  0.49283247  0.93832812  0.68629527    -0.39600
O766        O  0.48969919  0.51808194  0.68569601    -0.39700
C767        C  0.91475718  0.50257917  0.59194371    -0.11900
C768        C  0.97011667  0.53427584  0.56227450     0.05100
C769        C  0.99986076  0.59820141  0.56970881    -0.07200
C770        C  0.97209789  0.62381604  0.59968886    -0.08000
C771        C  0.91760303  0.59012724  0.62747912    -0.02500
C772        C  0.88746077  0.52865974  0.62060171     0.04300
N773        N  0.82928808  0.49096331  0.64467262     0.66800
H774        H  0.89291150  0.45663172  0.59909533     0.15700
H775        H  0.99708861  0.67113124  0.60625930     0.15400
N776        N  0.06227742  0.63882329  0.55956430     0.74500
O777        O  0.78465725  0.49186648  0.62547120    -0.38900
O778        O  0.82296101  0.45904266  0.68688906    -0.38900
O779        O  0.07654029  0.67930653  0.52376037    -0.39600
O780        O  0.09655252  0.65154180  0.60166195    -0.39700
C781        C  0.60971308  0.93755932  0.41259853    -0.11900
C782        C  0.56826168  0.89224267  0.37892564     0.05100
C783        C  0.50732762  0.86871086  0.39079369    -0.07200
C784        C  0.49050857  0.90075123  0.42549876    -0.08000
C785        C  0.53300517  0.95734850  0.44783561    -0.02500
C786        C  0.59260471  0.96538684  0.45184721     0.04300
N787        N  0.63348211  0.98929649  0.49835929     0.66800
H788        H  0.65627911  0.94954025  0.41078879     0.15700
H789        H  0.94316553  0.88264815  0.43090994     0.15400
N790        N  0.46188038  0.81544137  0.36504372     0.74500
O791        O  0.68442444  0.03369089  0.48841314    -0.38900
O792        O  0.63286191  0.45274599  0.53304137    -0.38900
O793        O  0.43997941  0.76788866  0.39258171    -0.39600
O794        O  0.43268707  0.81836357  0.32404238    -0.39700
C795        C  0.89126243  0.94112553  0.33775705    -0.11900
C796        C  0.83999014  0.93705523  0.36091355     0.05100
C797        C  0.84608360  0.96401132  0.41353529    -0.07200
C798        C  0.89893639  0.98385514  0.44565464    -0.08000
C799        C  0.94878779  0.98012841  0.42648777    -0.02500
C800        C  0.94582255  0.96732763  0.36700991     0.04300
N801        N  0.99810619  0.98703827  0.33300584     0.66800
H802        H  0.89041371  0.92788397  0.29423515     0.15700
H803        H  0.89916785  0.00230435  0.48556658     0.15400
N804        N  0.80027550  0.97330121  0.43454332     0.74500
O805        O  0.02086635  0.03752359  0.31083499    -0.38900
O806        O  0.00475696  0.94908416  0.30752272    -0.38900
O807        O  0.76302344  0.93821213  0.47044471    -0.39600
O808        O  0.80487354  0.02249785  0.42631838    -0.39700
C809        C  0.62690056  0.64750893  0.37677252    -0.11900
C810        C  0.59526018  0.67611489  0.37421159     0.05100
C811        C  0.54142265  0.65240990  0.40404915    -0.07200
C812        C  0.52155182  0.60167564  0.43687448    -0.08000
C813        C  0.54858410  0.56681550  0.43606610    -0.02500
C814        C  0.60362174  0.59239866  0.40300767     0.04300
N815        N  0.63625211  0.56450064  0.38943180     0.66800
H816        H  0.66763509  0.66488444  0.35191500     0.15700
H817        H  0.98149299  0.58812753  0.46070776     0.15400
N818        N  0.50555496  0.67866237  0.40132887     0.74500
O819        O  0.62066734  0.53258470  0.34586785    -0.38900
O820        O  0.69132256  0.59216045  0.40162300    -0.38900
O821        O  0.95911002  0.65493934  0.37093258    -0.39600
O822        O  0.51111111  0.71454247  0.43924838    -0.39700
C823        C  0.61362975  0.95364609  0.09619891    -0.11900
C824        C  0.57753446  0.91078458  0.13586700     0.05100
C825        C  0.51690909  0.89232332  0.13741604    -0.07200
C826        C  0.49523037  0.92044986  0.10469780    -0.08000
C827        C  0.53001108  0.96787897  0.06599081    -0.02500
C828        C  0.59176394  0.98103589  0.06028113     0.04300
N829        N  0.63627676  0.52394378  0.02281787     0.66800
H830        H  0.66054429  0.96723461  0.09338097     0.15700
H831        H  0.94840384  0.90134847  0.11196937     0.15400
N832        N  0.47534743  0.84564118  0.17362351     0.74500
O833        O  0.66872096  0.57633151  0.03978226    -0.38900
O834        O  0.65995703  0.50562260  0.98840905    -0.38900
O835        O  0.95442389  0.85824745  0.21565404    -0.39600
O836        O  0.94727249  0.79362787  0.15477718    -0.39700
C837        C  0.88537978  0.92067707  0.05412962    -0.11900
C838        C  0.93623234  0.97558266  0.07142214     0.05100
C839        C  0.93098499  0.99219808  0.12873294    -0.07200
C840        C  0.87579997  0.96790902  0.15522056    -0.08000
C841        C  0.82564766  0.91748285  0.13526458    -0.02500
C842        C  0.83092916  0.89196468  0.08521222     0.04300
N843        N  0.78182446  0.83712520  0.06554251     0.66800
H844        H  0.88779143  0.89810302  0.01763524     0.15700
H845        H  0.87451632  0.98430987  0.19688618     0.15400
N846        N  0.98067711  0.52594533  0.16592239     0.74500
O847        O  0.73608729  0.83510583  0.04524657    -0.38900
O848        O  0.77998918  0.78974159  0.07700905    -0.38900
O849        O  0.98493539  0.57019456  0.19046806    -0.39600
O850        O  0.00526593  0.50084776  0.18885397    -0.39700
C851        C  0.54475230  0.66371473  0.09607799    -0.11900
C852        C  0.59168628  0.67635845  0.13264085     0.05100
C853        C  0.61396533  0.63846320  0.13284154    -0.07200
C854        C  0.58547488  0.58682139  0.10159311    -0.08000
C855        C  0.53575992  0.56965751  0.06481235    -0.02500
C856        C  0.51513561  0.61114208  0.06442842     0.04300
N857        N  0.95956915  0.59918340  0.04118417     0.66800
H858        H  0.52624698  0.69206341  0.09627322     0.15700
H859        H  0.59931953  0.55765193  0.11548895     0.15400
N860        N  0.66186582  0.64767702  0.16928956     0.74500
O861        O  0.91523246  0.57802902  0.07431008    -0.38900
O862        O  0.96215894  0.63413028  0.00341424    -0.38900
O863        O  0.64960345  0.62049974  0.21588249    -0.39600
O864        O  0.71386868  0.66952932  0.14895889    -0.39700
loop_ 
_geom_bond_atom_site_label_1 
_geom_bond_atom_site_label_2 
_geom_bond_distance 
_geom_bond_site_symmetry_2 
_ccdc_geom_bond_type 
O1          Cr19   1.980       .  S
O1            C9   1.257       .  A
O2          Cr19   1.988       .  S
O2            C3   1.261       .  A
C3            O4   1.271       .  A
C3          C193   1.482       .  S
O4          Cr20   1.998       .  S
O5          Cr20   1.986       .  S
O5            C6   1.258       .  A
C6            O7   1.259       .  A
C6          C176   1.486       .  S
O7          Cr21   1.981       .  S
O8          Cr21   1.989       .  S
O8            C9   1.259       .  A
C9          C204   1.483       .  S
O10         Cr19   1.981       .  S
O10          C18   1.266       .  A
O11         Cr19   1.997       .  S
O11          C12   1.262       .  A
C12          O13   1.264       .  A
C12         C148   1.498       .  S
O13         Cr20   2.015       .  S
O14         Cr20   2.004       .  S
O14          C15   1.271       .  A
C15          O16   1.258       .  A
C15         C134   1.472       .  S
O16         Cr21   1.971       .  S
O17         Cr21   2.002       .  S
O17          C18   1.266       .  A
C18         C162   1.472       .  S
Cr19         O22   1.769       .  S
Cr20         O22   1.767       .  S
Cr21         O22   1.779       .  S
C23         C179   1.633   1_655  S
C23         C622   1.604       .  S
C23         C423   1.608   1_655  S
C23         C695   1.725   1_554  S
C24         C137   1.634       .  S
C24         C583   1.624   1_455  S
C24         C381   1.602       .  S
C24         C696   1.703   1_455  S
O25         Cr43   2.026       .  S
O25          C33   1.273       .  A
O26         Cr43   1.978       .  S
O26          C27   1.257       .  A
C27          O28   1.270       .  A
C27          C53   1.492       .  S
O28         Cr44   2.012       .  S
O29         Cr44   1.987       .  S
O29          C30   1.261       .  A
C30          O31   1.265       .  A
C30          C78   1.491       .  S
O31         Cr45   1.997       .  S
O32         Cr45   1.987       .  S
O32          C33   1.261       .  A
C33          C64   1.508       .  S
O34         Cr43   1.970       .  S
O34          C42   1.255       .  A
O35         Cr43   2.010       .  S
O35          C36   1.268       .  A
C36          O37   1.259       .  A
C36          C92   1.489       .  S
O37         Cr44   1.980       .  S
O38         Cr44   2.018       .  S
O38          C39   1.268       .  A
C39          O40   1.259       .  A
C39         C123   1.502       .  S
O40         Cr45   1.983       .  S
O41         Cr45   1.998       .  S
O41          C42   1.263       .  A
C42         C109   1.462       .  S
Cr43         O46   1.779       .  S
Cr44         O46   1.778       .  S
Cr45         O46   1.774       .  S
C47          C81   1.633       .  S
C47         C266   1.650   1_545  S
C47         C499   1.626       .  S
C47         C671   1.725   1_556  S
C48         C120   1.623   1_565  S
C48         C311   1.641       .  S
C48         C538   1.594   1_565  S
C48         C672   1.703   1_565  S
C49          C50   1.440       .  A
C49          C54   1.395       .  A
C49          H56   1.070       .  S
C50         C263   1.650       .  S
C50          C51   1.464       .  A
C51          C52   1.414       .  A
C51         N490   1.416       .  S
C52          C53   1.382       .  A
C52          H57   1.085       .  S
C53          C54   1.399       .  A
C54          N55   1.431       .  S
N55          O59   1.262       .  A
N55          O60   1.261       .  A
N58         C483   1.416       .  S
N58          O62   1.262   1_655  A
N58          O61   1.263   1_556  A
C63          C64   1.395       .  A
C63          C68   1.420       .  A
C63          H70   1.084       .  S
C64          C65   1.409       .  A
C65          C66   1.397       .  A
C65          N72   1.431   1_545  S
C66          C67   1.425       .  A
C66          H71   1.064   1_545  S
C67         C479   1.626   1_455  S
C67          C68   1.468       .  A
C68          N69   1.432       .  S
N69          O73   1.263   1_556  A
N69          O74   1.261       .  A
N72          O76   1.262       .  A
N72          O75   1.262       .  A
C77          C78   1.392       .  A
C77          C82   1.417       .  A
C77          H84   1.084       .  S
C78          C79   1.400       .  A
C79          C80   1.390       .  A
C79          N86   1.432       .  S
C80          C81   1.438       .  A
C80         H517   1.073       .  S
C81          C82   1.460       .  A
C82          N83   1.423   1_545  S
N83          O87   1.263   1_556  A
N83         O304   1.262       .  A
H85         C512   1.073   1_455  S
N86          O90   1.262       .  A
N86         O521   1.262       .  A
O88         N299   1.262       .  A
O89         N518   1.262       .  A
C91          C92   1.390       .  A
C91          C96   1.411       .  A
C91          H98   1.084       .  S
C92          C93   1.405       .  A
C93          C94   1.394       .  A
C93         N100   1.431       .  S
C94          C95   1.416       .  A
C94         H531   1.067       .  S
C95         C264   1.641       .  S
C95          C96   1.455       .  A
C96          N97   1.423       .  S
N97         O101   1.262       .  A
N97         O102   1.262       .  A
H99         C526   1.067   1_455  S
N100        O536   1.262       .  A
N100        O103   1.262       .  A
O104        N532   1.262       .  A
C105        C106   1.419       .  A
C105        C110   1.405       .  A
C105        H112   1.056       .  S
C106        C480   1.594   1_445  S
C106        C107   1.441       .  A
C107        C108   1.398       .  A
C107        N330   1.431   1_545  S
C108        C109   1.389       .  A
C108        H113   1.084       .  S
C109        C110   1.398       .  A
C110        N111   1.433       .  S
N111        O115   1.261       .  A
N111        O116   1.262       .  A
N114        C323   1.431       .  S
N114        O334   1.261   1_455  A
N114        O117   1.261   1_455  A
O118        N330   1.261   1_645  A
C119        C120   1.423       .  A
C119        C124   1.400       .  A
C119        H126   1.057   1_545  S
C120        C121   1.464       .  A
C121        C122   1.415       .  A
C121        N128   1.432       .  S
C122        C123   1.390       .  A
C122        H127   1.084       .  S
C123        C124   1.405       .  A
C124        N125   1.432   1_545  S
N125        O129   1.262       .  A
N125        O130   1.262       .  A
N128        O132   1.263       .  A
N128        O131   1.261       .  A
C133        C134   1.380       .  A
C133        C138   1.397       .  A
C133        H140   1.086       .  S
C134        C135   1.402       .  A
C135        C136   1.407   1_455  A
C135        N142   1.428   1_455  S
C136        C137   1.428   1_655  A
C136        H573   1.076       .  S
C137        C138   1.460       .  A
C138        N139   1.432       .  S
N139        O143   1.259       .  A
N139        O360   1.262       .  A
H141        C568   1.076       .  S
N142        O146   1.260       .  A
N142        O145   1.261       .  A
O144        N355   1.262       .  A
C147        C148   1.397       .  A
C147        C152   1.402       .  A
C147        H154   1.085       .  S
C148        C149   1.404       .  A
C149        C150   1.416       .  A
C149        N156   1.429       .  S
C150        C151   1.429       .  A
C150        H155   1.063       .  S
C151        C456   1.624       .  S
C151        C152   1.441       .  A
C152        N153   1.428       .  S
N153        O157   1.262       .  A
N153        O158   1.261       .  A
N156        O160   1.262       .  A
N156        O159   1.261       .  A
C161        C162   1.383       .  A
C161        C166   1.402       .  A
C161        H168   1.086       .  S
C162        C163   1.396       .  A
C163        C164   1.398       .  A
C163        N170   1.429       .  S
C164        C165   1.425       .  A
C164        H601   1.072   1_455  S
C165        C240   1.602       .  S
C165        C166   1.456       .  A
C166        N167   1.425       .  S
N167        O171   1.261       .  A
N167        O172   1.263       .  A
H169        C596   1.072       .  S
N170        O174   1.262       .  A
N170        O605   1.262   1_455  A
O173        N602   1.262       .  A
C175        C176   1.394       .  A
C175        C180   1.416       .  A
C175        H182   1.084       .  S
C176        C177   1.393       .  A
C177        C178   1.383   1_455  A
C177        N184   1.430   1_455  S
C178        C179   1.434   1_655  A
C178        H615   1.066       .  S
C179        C180   1.468       .  A
C180        N397   1.433       .  S
N181        C396   1.433   1_545  S
N181        O185   1.261       .  A
N181        O186   1.262   1_554  A
H183        C610   1.066       .  S
N184        O620   1.262       .  A
N184        O619   1.261       .  A
O187        N616   1.261       .  A
O188        N616   1.262       .  A
C189        C190   1.431       .  A
C189        C194   1.419       .  A
C189        H196   1.072       .  S
C190        C455   1.604       .  S
C190        C191   1.454       .  A
C191        C192   1.385       .  A
C191        N414   1.434       .  S
C192        C193   1.382       .  A
C192        H197   1.086       .  S
C193        C194   1.407       .  A
C194        N195   1.429       .  S
N195        O199   1.262       .  A
N195        O200   1.262       .  A
N198        C407   1.434   1_545  S
N198        O202   1.262       .  A
N198        O201   1.263       .  A
C203        C204   1.392       .  A
C203        C208   1.410       .  A
C203        H210   1.084       .  S
C204        C205   1.398       .  A
C205        C206   1.387       .  A
C205        N212   1.432       .  S
C206        C207   1.427       .  A
C206        H211   1.061       .  S
C207        C239   1.608   1_455  S
C207        C208   1.455       .  A
C208        N641   1.425   1_455  S
N209        C640   1.425       .  S
N209        O213   1.262       .  A
N209        O214   1.263       .  A
N212        O216   1.262       .  A
N212        O215   1.263       .  A
O217       Cr235   1.980       .  S
O217        C225   1.257       .  A
O218       Cr235   1.988       .  S
O218        C219   1.261       .  A
C219        O220   1.271       .  A
C219        C409   1.482       .  S
O220       Cr236   1.998       .  S
O221       Cr236   1.986       .  S
O221        C222   1.258       .  A
C222        O223   1.259       .  A
C222        C392   1.486       .  S
O223       Cr237   1.981       .  S
O224       Cr237   1.989       .  S
O224        C225   1.259       .  A
C225        C420   1.483       .  S
O226       Cr235   1.981       .  S
O226        C234   1.266       .  A
O227       Cr235   1.997       .  S
O227        C228   1.262       .  A
C228        O229   1.264       .  A
C228        C364   1.498       .  S
O229       Cr236   2.015       .  S
O230       Cr236   2.004       .  S
O230        C231   1.271       .  A
C231        O232   1.258       .  A
C231        C350   1.472       .  S
O232       Cr237   1.971       .  S
O233       Cr237   2.002       .  S
O233        C234   1.266       .  A
C234        C378   1.472       .  S
Cr235       O238   1.769       .  S
Cr236       O238   1.767       .  S
Cr237       O238   1.779       .  S
C239        C395   1.633   1_645  S
C239        C838   1.604   1_545  S
C239        C479   1.725   1_554  S
C240        C353   1.634   1_545  S
C240        C799   1.624   1_445  S
C240        C480   1.703   1_445  S
O241       Cr259   2.026       .  S
O241        C249   1.273       .  A
O242       Cr259   1.978       .  S
O242        C243   1.257       .  A
C243        O244   1.270       .  A
C243        C269   1.492       .  S
O244       Cr260   2.012       .  S
O245       Cr260   1.987       .  S
O245        C246   1.261       .  A
C246        O247   1.265       .  A
C246        C294   1.491       .  S
O247       Cr261   1.997       .  S
O248       Cr261   1.987       .  S
O248        C249   1.261       .  A
C249        C280   1.508       .  S
O250       Cr259   1.970       .  S
O250        C258   1.255       .  A
O251       Cr259   2.010       .  S
O251        C252   1.268       .  A
C252        O253   1.259       .  A
C252        C308   1.489       .  S
O253       Cr260   1.980       .  S
O254       Cr260   2.018       .  S
O254        C255   1.268       .  A
C255        O256   1.259       .  A
C255        C339   1.502       .  S
O256       Cr261   1.983       .  S
O257       Cr261   1.998       .  S
O257        C258   1.263       .  A
C258        C325   1.462       .  S
Cr259       O262   1.779       .  S
Cr260       O262   1.778       .  S
Cr261       O262   1.774       .  S
C263        C715   1.626       .  S
C263        C297   1.633       .  S
C263        C455   1.725   1_556  S
C264        C754   1.594       .  S
C264        C336   1.623       .  S
C264        C456   1.703       .  S
C265        C266   1.440       .  A
C265        C270   1.395       .  A
C265        H272   1.070       .  S
C266        C267   1.464       .  A
C267        C268   1.414       .  A
C267        N706   1.416       .  S
C268        C269   1.382       .  A
C268        H273   1.085       .  S
C269        C270   1.399       .  A
C270        N271   1.431       .  S
N271        O275   1.262       .  A
N271        O276   1.261       .  A
N274        C699   1.416       .  S
N274        O278   1.262   1_655  A
N274        O277   1.263   1_556  A
C279        C280   1.395       .  A
C279        C284   1.420       .  A
C279        H286   1.084       .  S
C280        C281   1.409       .  A
C281        C282   1.397       .  A
C281        N288   1.431       .  S
C282        C283   1.425       .  A
C282        H287   1.064       .  S
C283        C695   1.626   1_455  S
C283        C284   1.468       .  A
C284        N285   1.432       .  S
N285        O289   1.263   1_556  A
N285        O290   1.261       .  A
N288        O292   1.262       .  A
N288        O291   1.262       .  A
C293        C294   1.392       .  A
C293        C298   1.417       .  A
C293        H300   1.084       .  S
C294        C295   1.400       .  A
C295        C296   1.390       .  A
C295        N302   1.432       .  S
C296        C297   1.438       .  A
C296        H733   1.073       .  S
C297        C298   1.460       .  A
C298        N299   1.422       .  S
N299        O303   1.263   1_556  A
H301        C728   1.073   1_455  S
N302        O306   1.262       .  A
N302        O737   1.262       .  A
O305        N734   1.262       .  A
C307        C308   1.390       .  A
C307        C312   1.411       .  A
C307        H314   1.084       .  S
C308        C309   1.405       .  A
C309        C310   1.394       .  A
C309        N316   1.431       .  S
C310        C311   1.415       .  A
C310        H747   1.071       .  S
C311        C312   1.455       .  A
C312        N313   1.423       .  S
N313        O317   1.262       .  A
N313        O318   1.262       .  A
H315        C742   1.071   1_455  S
N316        O752   1.262       .  A
N316        O319   1.262       .  A
O320        N748   1.262       .  A
C321        C322   1.419       .  A
C321        C326   1.405       .  A
C321        H328   1.056       .  S
C322        C696   1.594   1_455  S
C322        C323   1.441       .  A
C323        C324   1.398       .  A
C324        C325   1.389       .  A
C324        H329   1.084       .  S
C325        C326   1.398       .  A
C326        N327   1.433       .  S
N327        O331   1.261       .  A
N327        O332   1.262       .  A
N330        O333   1.261   1_455  A
C335        C336   1.423       .  A
C335        C340   1.400       .  A
C335        H342   1.057       .  S
C336        C337   1.464       .  A
C337        C338   1.415       .  A
C337        N344   1.432       .  S
C338        C339   1.390       .  A
C338        H343   1.084       .  S
C339        C340   1.405       .  A
C340        N341   1.432       .  S
N341        O345   1.262       .  A
N341        O346   1.262       .  A
N344        O348   1.263       .  A
N344        O347   1.261       .  A
C349        C350   1.380       .  A
C349        C354   1.397       .  A
C349        H356   1.086       .  S
C350        C351   1.402       .  A
C351        C352   1.407   1_455  A
C351        N358   1.428   1_455  S
C352        C353   1.428   1_655  A
C352        H789   1.076       .  S
C353        C354   1.460       .  A
C354        N355   1.432       .  S
N355        O359   1.259   1_565  A
H357        C784   1.076       .  S
N358        O362   1.260       .  A
N358        O361   1.261       .  A
C363        C364   1.397       .  A
C363        C368   1.402       .  A
C363        H370   1.085       .  S
C364        C365   1.404       .  A
C365        C366   1.416       .  A
C365        N372   1.429       .  S
C366        C367   1.429       .  A
C366        H371   1.063   1_565  S
C367        C672   1.624   1_565  S
C367        C368   1.441       .  A
C368        N369   1.428       .  S
N369        O373   1.262   1_565  A
N369        O374   1.261       .  A
N372        O376   1.262   1_565  A
N372        O375   1.261       .  A
C377        C378   1.383       .  A
C377        C382   1.402       .  A
C377        H384   1.086       .  S
C378        C379   1.396       .  A
C379        C380   1.398       .  A
C379        N386   1.429       .  S
C380        C381   1.425       .  A
C380        H817   1.072   1_455  S
C381        C382   1.456       .  A
C382        N383   1.425       .  S
N383        O387   1.261       .  A
N383        O388   1.263       .  A
H385        C812   1.072       .  S
N386        O390   1.262       .  A
N386        O821   1.262   1_455  A
O389        N818   1.262       .  A
C391        C392   1.394       .  A
C391        C396   1.416       .  A
C391        H398   1.084       .  S
C392        C393   1.393       .  A
C393        C394   1.383   1_455  A
C393        N400   1.430   1_455  S
C394        C395   1.434   1_655  A
C394        H831   1.066       .  S
C395        C396   1.468       .  A
N397        O401   1.261       .  A
N397        O402   1.262   1_554  A
H399        C826   1.066       .  S
N400        O836   1.262       .  A
N400        O835   1.261       .  A
O403        N832   1.261       .  A
O404        N832   1.262       .  A
C405        C406   1.431       .  A
C405        C410   1.419       .  A
C405        H412   1.072       .  S
C406        C671   1.604   1_565  S
C406        C407   1.454       .  A
C407        C408   1.385       .  A
C408        C409   1.382       .  A
C408        H413   1.086       .  S
C409        C410   1.407       .  A
C410        N411   1.429       .  S
N411        O415   1.262       .  A
N411        O416   1.262       .  A
N414        O418   1.262       .  A
N414        O417   1.263       .  A
C419        C420   1.392       .  A
C419        C424   1.410       .  A
C419        H426   1.084       .  S
C420        C421   1.398       .  A
C421        C422   1.387       .  A
C421        N428   1.432       .  S
C422        C423   1.427       .  A
C422        H427   1.061       .  S
C423        C424   1.455       .  A
C424        N857   1.425   1_455  S
N425        C856   1.425       .  S
N425        O429   1.262       .  A
N425        O430   1.263       .  A
N428        O432   1.262       .  A
N428        O431   1.263       .  A
O433       Cr451   1.980       .  S
O433        C441   1.257       .  A
O434       Cr451   1.988       .  S
O434        C435   1.261       .  A
C435        O436   1.271       .  A
C435        C625   1.482       .  S
O436       Cr452   1.998       .  S
O437       Cr452   1.986       .  S
O437        C438   1.258       .  A
C438        O439   1.259       .  A
C438        C608   1.486       .  S
O439       Cr453   1.981       .  S
O440       Cr453   1.989       .  S
O440        C441   1.259       .  A
C441        C636   1.483       .  S
O442       Cr451   1.981       .  S
O442        C450   1.266       .  A
O443       Cr451   1.997       .  S
O443        C444   1.262       .  A
C444        O445   1.264       .  A
C444        C580   1.498       .  S
O445       Cr452   2.015       .  S
O446       Cr452   2.004       .  S
O446        C447   1.271       .  A
C447        O448   1.258       .  A
C447        C566   1.472       .  S
O448       Cr453   1.971       .  S
O449       Cr453   2.002       .  S
O449        C450   1.266       .  A
C450        C594   1.472       .  S
Cr451       O454   1.769       .  S
Cr452       O454   1.767       .  S
Cr453       O454   1.779       .  S
C455        C611   1.633       .  S
C455        C855   1.608       .  S
C456        C569   1.634       .  S
C456        C813   1.602       .  S
O457       Cr475   2.026       .  S
O457        C465   1.273       .  A
O458       Cr475   1.978       .  S
O458        C459   1.257       .  A
C459        O460   1.270       .  A
C459        C485   1.492       .  S
O460       Cr476   2.012       .  S
O461       Cr476   1.987       .  S
O461        C462   1.261       .  A
C462        O463   1.265       .  A
C462        C510   1.491       .  S
O463       Cr477   1.997       .  S
O464       Cr477   1.987       .  S
O464        C465   1.261       .  A
C465        C496   1.508       .  S
O466       Cr475   1.970       .  S
O466        C474   1.255       .  A
O467       Cr475   2.010       .  S
O467        C468   1.268       .  A
C468        O469   1.259       .  A
C468        C524   1.489       .  S
O469       Cr476   1.980       .  S
O470       Cr476   2.018       .  S
O470        C471   1.268       .  A
C471        O472   1.259       .  A
C471        C555   1.502       .  S
O472       Cr477   1.983       .  S
O473       Cr477   1.998       .  S
O473        C474   1.263       .  A
C474        C541   1.462       .  S
Cr475       O478   1.779       .  S
Cr476       O478   1.778       .  S
Cr477       O478   1.774       .  S
C479        C698   1.650   1_545  S
C479        C513   1.633       .  S
C480        C743   1.641       .  S
C480        C552   1.623   1_565  S
C481        C482   1.440       .  A
C481        C486   1.395       .  A
C481        H488   1.070       .  S
C482        C695   1.650       .  S
C482        C483   1.464       .  A
C483        C484   1.414       .  A
C484        C485   1.382       .  A
C484        H489   1.085       .  S
C485        C486   1.399       .  A
C486        N487   1.431       .  S
N487        O491   1.262       .  A
N487        O492   1.261       .  A
N490        O494   1.262       .  A
N490        O493   1.263   1_556  A
C495        C496   1.395       .  A
C495        C500   1.420       .  A
C495        H502   1.084       .  S
C496        C497   1.409       .  A
C497        C498   1.397       .  A
C497        N504   1.431   1_545  S
C498        C499   1.425       .  A
C498        H503   1.064   1_545  S
C499        C500   1.468       .  A
C500        N501   1.432       .  S
N501        O505   1.263   1_556  A
N501        O506   1.261       .  A
N504        O508   1.262       .  A
N504        O507   1.262       .  A
C509        C510   1.392       .  A
C509        C514   1.417       .  A
C509        H516   1.084       .  S
C510        C511   1.400       .  A
C511        C512   1.390       .  A
C511        N518   1.432   1_655  S
C512        C513   1.438       .  A
C513        C514   1.460       .  A
C514        N515   1.423   1_545  S
N515        O519   1.263   1_556  A
N515        O736   1.262       .  A
N518        O522   1.262       .  A
O520        N731   1.262       .  A
C523        C524   1.390       .  A
C523        C528   1.411       .  A
C523        H530   1.084       .  S
C524        C525   1.405       .  A
C525        C526   1.394       .  A
C525        N532   1.431   1_655  S
C526        C527   1.416       .  A
C527        C696   1.641       .  S
C527        C528   1.455       .  A
C528        N529   1.423       .  S
N529        O533   1.262       .  A
N529        O534   1.262       .  A
N532        O535   1.262       .  A
C537        C538   1.419       .  A
C537        C542   1.405       .  A
C537        H544   1.056       .  S
C538        C539   1.441       .  A
C539        C540   1.398       .  A
C539        N762   1.431   1_545  S
C540        C541   1.389       .  A
C540        H545   1.084       .  S
C541        C542   1.398       .  A
C542        N543   1.433       .  S
N543        O547   1.261       .  A
N543        O548   1.262       .  A
N546        C755   1.431       .  S
N546        O766   1.261       .  A
N546        O549   1.261       .  A
O550        N762   1.261   1_545  A
C551        C552   1.423       .  A
C551        C556   1.400       .  A
C551        H558   1.057   1_545  S
C552        C553   1.464       .  A
C553        C554   1.415       .  A
C553        N560   1.432   1_655  S
C554        C555   1.390       .  A
C554        H559   1.084       .  S
C555        C556   1.405       .  A
C556        N557   1.432   1_545  S
N557        O561   1.262       .  A
N557        O562   1.262       .  A
N560        O564   1.263       .  A
N560        O563   1.261       .  A
C565        C566   1.380       .  A
C565        C570   1.397       .  A
C565        H572   1.086       .  S
C566        C567   1.402       .  A
C567        C568   1.407       .  A
C567        N574   1.428       .  S
C568        C569   1.428       .  A
C569        C570   1.460       .  A
C570        N571   1.432       .  S
N571        O575   1.259       .  A
N571        O792   1.262       .  A
N574        O578   1.260       .  A
N574        O577   1.261       .  A
O576        N787   1.262       .  A
C579        C580   1.397       .  A
C579        C584   1.402       .  A
C579        H586   1.085       .  S
C580        C581   1.404       .  A
C581        C582   1.416       .  A
C581        N588   1.429       .  S
C582        C583   1.429       .  A
C582        H587   1.063       .  S
C583        C584   1.441       .  A
C584        N585   1.428       .  S
N585        O589   1.262   1_655  A
N585        O590   1.261   1_655  A
N588        O592   1.262       .  A
N588        O591   1.261       .  A
C593        C594   1.383       .  A
C593        C598   1.402       .  A
C593        H600   1.086       .  S
C594        C595   1.396       .  A
C595        C596   1.398       .  A
C595        N602   1.429       .  S
C596        C597   1.425       .  A
C597        C672   1.602       .  S
C597        C598   1.456       .  A
C598        N599   1.425       .  S
N599        O603   1.261       .  A
N599        O604   1.263       .  A
N602        O606   1.262       .  A
C607        C608   1.394       .  A
C607        C612   1.416       .  A
C607        H614   1.084       .  S
C608        C609   1.393       .  A
C609        C610   1.383       .  A
C609        N616   1.430       .  S
C610        C611   1.434       .  A
C611        C612   1.468       .  A
C612        N829   1.433       .  S
N613        C828   1.433   1_545  S
N613        O617   1.261       .  A
N613        O618   1.262   1_554  A
C621        C622   1.431       .  A
C621        C626   1.419       .  A
C621        H628   1.072       .  S
C622        C623   1.454       .  A
C623        C624   1.385       .  A
C623        N846   1.434       .  S
C624        C625   1.382       .  A
C624        H629   1.086       .  S
C625        C626   1.407       .  A
C626        N627   1.429       .  S
N627        O631   1.262       .  A
N627        O632   1.262       .  A
N630        C839   1.434   1_545  S
N630        O634   1.262   1_655  A
N630        O633   1.263       .  A
C635        C636   1.392       .  A
C635        C640   1.410       .  A
C635        H642   1.084       .  S
C636        C637   1.398       .  A
C637        C638   1.387       .  A
C637        N644   1.432       .  S
C638        C639   1.427       .  A
C638        H643   1.061       .  S
C639        C671   1.608       .  S
C639        C640   1.455       .  A
N641        O645   1.262       .  A
N641        O646   1.263       .  A
N644        O648   1.262       .  A
N644        O647   1.263       .  A
O649       Cr667   1.980       .  S
O649        C657   1.257       .  A
O650       Cr667   1.988       .  S
O650        C651   1.261       .  A
C651        O652   1.271       .  A
C651        C841   1.482       .  S
O652       Cr668   1.998       .  S
O653       Cr668   1.986       .  S
O653        C654   1.258       .  A
C654        O655   1.259       .  A
C654        C824   1.486       .  S
O655       Cr669   1.981       .  S
O656       Cr669   1.989       .  S
O656        C657   1.259       .  A
C657        C852   1.483       .  S
O658       Cr667   1.981       .  S
O658        C666   1.266       .  A
O659       Cr667   1.997       .  S
O659        C660   1.262       .  A
C660        O661   1.264       .  A
C660        C796   1.498       .  S
O661       Cr668   2.015       .  S
O662       Cr668   2.004       .  S
O662        C663   1.271       .  A
C663        O664   1.258       .  A
C663        C782   1.472       .  S
O664       Cr669   1.971       .  S
O665       Cr669   2.002       .  S
O665        C666   1.266       .  A
C666        C810   1.472       .  S
Cr667       O670   1.769       .  S
Cr668       O670   1.767       .  S
Cr669       O670   1.779       .  S
C671        C827   1.633   1_545  S
C672        C785   1.634   1_545  S
O673       Cr691   2.026       .  S
O673        C681   1.273       .  A
O674       Cr691   1.978       .  S
O674        C675   1.257       .  A
C675        O676   1.270       .  A
C675        C701   1.492       .  S
O676       Cr692   2.012       .  S
O677       Cr692   1.987       .  S
O677        C678   1.261       .  A
C678        O679   1.265       .  A
C678        C726   1.491       .  S
O679       Cr693   1.997       .  S
O680       Cr693   1.987       .  S
O680        C681   1.261       .  A
C681        C712   1.508       .  S
O682       Cr691   1.970       .  S
O682        C690   1.255       .  A
O683       Cr691   2.010       .  S
O683        C684   1.268       .  A
C684        O685   1.259       .  A
C684        C740   1.489       .  S
O685       Cr692   1.980       .  S
O686       Cr692   2.018       .  S
O686        C687   1.268       .  A
C687        O688   1.259       .  A
C687        C771   1.502       .  S
O688       Cr693   1.983       .  S
O689       Cr693   1.998       .  S
O689        C690   1.263       .  A
C690        C757   1.462       .  S
Cr691       O694   1.779       .  S
Cr692       O694   1.778       .  S
Cr693       O694   1.774       .  S
C695        C729   1.633       .  S
C696        C768   1.623       .  S
C697        C698   1.440       .  A
C697        C702   1.395       .  A
C697        H704   1.070       .  S
C698        C699   1.464       .  A
C699        C700   1.414       .  A
C700        C701   1.382       .  A
C700        H705   1.085       .  S
C701        C702   1.399       .  A
C702        N703   1.431       .  S
N703        O707   1.262       .  A
N703        O708   1.261       .  A
N706        O710   1.262       .  A
N706        O709   1.263   1_556  A
C711        C712   1.395       .  A
C711        C716   1.420       .  A
C711        H718   1.084       .  S
C712        C713   1.409       .  A
C713        C714   1.397       .  A
C713        N720   1.431       .  S
C714        C715   1.425       .  A
C714        H719   1.064       .  S
C715        C716   1.468       .  A
C716        N717   1.432       .  S
N717        O721   1.263   1_556  A
N717        O722   1.261       .  A
N720        O724   1.262       .  A
N720        O723   1.262       .  A
C725        C726   1.392       .  A
C725        C730   1.417       .  A
C725        H732   1.084       .  S
C726        C727   1.400       .  A
C727        C728   1.390       .  A
C727        N734   1.432   1_655  S
C728        C729   1.438       .  A
C729        C730   1.460       .  A
C730        N731   1.422       .  S
N731        O735   1.263   1_556  A
N734        O738   1.262       .  A
C739        C740   1.390       .  A
C739        C744   1.411       .  A
C739        H746   1.084       .  S
C740        C741   1.405       .  A
C741        C742   1.394       .  A
C741        N748   1.431   1_655  S
C742        C743   1.415       .  A
C743        C744   1.455       .  A
C744        N745   1.423       .  S
N745        O749   1.262       .  A
N745        O750   1.262       .  A
N748        O751   1.262       .  A
C753        C754   1.419       .  A
C753        C758   1.405       .  A
C753        H760   1.056       .  S
C754        C755   1.441       .  A
C755        C756   1.398       .  A
C756        C757   1.389       .  A
C756        H761   1.084       .  S
C757        C758   1.398       .  A
C758        N759   1.433       .  S
N759        O763   1.261       .  A
N759        O764   1.262       .  A
N762        O765   1.261       .  A
C767        C768   1.423       .  A
C767        C772   1.400       .  A
C767        H774   1.057       .  S
C768        C769   1.464       .  A
C769        C770   1.415       .  A
C769        N776   1.432   1_655  S
C770        C771   1.390       .  A
C770        H775   1.084       .  S
C771        C772   1.405       .  A
C772        N773   1.432       .  S
N773        O777   1.262       .  A
N773        O778   1.262       .  A
N776        O780   1.263       .  A
N776        O779   1.261       .  A
C781        C782   1.380       .  A
C781        C786   1.397       .  A
C781        H788   1.086       .  S
C782        C783   1.402       .  A
C783        C784   1.407       .  A
C783        N790   1.428       .  S
C784        C785   1.428       .  A
C785        C786   1.460       .  A
C786        N787   1.432       .  S
N787        O791   1.259   1_565  A
N790        O794   1.260       .  A
N790        O793   1.261       .  A
C795        C796   1.397       .  A
C795        C800   1.402       .  A
C795        H802   1.085       .  S
C796        C797   1.404       .  A
C797        C798   1.416       .  A
C797        N804   1.429       .  S
C798        C799   1.429       .  A
C798        H803   1.063   1_565  S
C799        C800   1.441       .  A
C800        N801   1.428       .  S
N801        O805   1.262   1_665  A
N801        O806   1.261   1_655  A
N804        O808   1.262   1_565  A
N804        O807   1.261       .  A
C809        C810   1.383       .  A
C809        C814   1.402       .  A
C809        H816   1.086       .  S
C810        C811   1.396       .  A
C811        C812   1.398       .  A
C811        N818   1.429       .  S
C812        C813   1.425       .  A
C813        C814   1.456       .  A
C814        N815   1.425       .  S
N815        O819   1.261       .  A
N815        O820   1.263       .  A
N818        O822   1.262       .  A
C823        C824   1.394       .  A
C823        C828   1.416       .  A
C823        H830   1.084       .  S
C824        C825   1.393       .  A
C825        C826   1.383       .  A
C825        N832   1.430       .  S
C826        C827   1.434       .  A
C827        C828   1.468       .  A
N829        O833   1.261       .  A
N829        O834   1.262   1_554  A
C837        C838   1.431       .  A
C837        C842   1.419       .  A
C837        H844   1.072       .  S
C838        C839   1.454       .  A
C839        C840   1.385       .  A
C840        C841   1.382       .  A
C840        H845   1.086       .  S
C841        C842   1.407       .  A
C842        N843   1.429       .  S
N843        O847   1.262       .  A
N843        O848   1.262       .  A
N846        O850   1.262   1_655  A
N846        O849   1.263       .  A
C851        C852   1.392       .  A
C851        C856   1.410       .  A
C851        H858   1.084       .  S
C852        C853   1.398       .  A
C853        C854   1.387       .  A
C853        N860   1.432       .  S
C854        C855   1.427       .  A
C854        H859   1.061       .  S
C855        C856   1.455       .  A
N857        O861   1.262       .  A
N857        O862   1.263       .  A
N860        O864   1.262       .  A
N860        O863   1.263       .  A
